

        *** GPGPU-Sim Simulator Version 3.2.2  [build 0] ***


GPGPU-Sim PTX: simulation mode 0 (can change with PTX_SIM_MODE_FUNC environment variable:
               1=functional simulation only, 0=detailed performance simulator)
GPGPU-Sim: Configuration options:

-network_mode                           1 # Interconnection network mode
-inter_config_file   config_fermi_islip.icnt # Interconnection network config file
-gpgpu_ptx_use_cuobjdump                    1 # Use cuobjdump to extract ptx and sass from binaries
-gpgpu_experimental_lib_support                    0 # Try to extract code from cuda libraries [Broken because of unknown cudaGetExportTable]
-gpgpu_ptx_convert_to_ptxplus                    0 # Convert SASS (native ISA) to ptxplus and run ptxplus
-gpgpu_ptx_force_max_capability                   20 # Force maximum compute capability
-gpgpu_ptx_inst_debug_to_file                    0 # Dump executed instructions' debug information to file
-gpgpu_ptx_inst_debug_file       inst_debug.txt # Executed instructions' debug output file
-gpgpu_ptx_inst_debug_thread_uid                    1 # Thread UID for executed instructions' debug output
-gpgpu_simd_model                       1 # 1 = post-dominator
-gpgpu_shader_core_pipeline              1536:32 # shader core pipeline config, i.e., {<nthread>:<warpsize>}
-gpgpu_tex_cache:l1  4:128:24,L:R:m:N:L,F:128:4,128:2 # per-shader L1 texture cache  (READ-ONLY) config  {<nsets>:<bsize>:<assoc>,<rep>:<wr>:<alloc>:<wr_alloc>,<mshr>:<N>:<merge>,<mq>:<rf>}
-gpgpu_const_cache:l1 64:64:2,L:R:f:N:L,A:2:32,4 # per-shader L1 constant memory cache  (READ-ONLY) config  {<nsets>:<bsize>:<assoc>,<rep>:<wr>:<alloc>:<wr_alloc>,<mshr>:<N>:<merge>,<mq>} 
-gpgpu_cache:il1     4:128:4,L:R:f:N:L,A:2:32,4 # shader L1 instruction cache config  {<nsets>:<bsize>:<assoc>,<rep>:<wr>:<alloc>:<wr_alloc>,<mshr>:<N>:<merge>,<mq>} 
-gpgpu_cache:dl1     32:128:4,L:L:m:N:H,A:32:8,8 # per-shader L1 data cache config  {<nsets>:<bsize>:<assoc>,<rep>:<wr>:<alloc>:<wr_alloc>,<mshr>:<N>:<merge>,<mq> | none}
-gpgpu_cache:dl1PrefL1                 none # per-shader L1 data cache config  {<nsets>:<bsize>:<assoc>,<rep>:<wr>:<alloc>:<wr_alloc>,<mshr>:<N>:<merge>,<mq> | none}
-gpgpu_cache:dl1PreShared                 none # per-shader L1 data cache config  {<nsets>:<bsize>:<assoc>,<rep>:<wr>:<alloc>:<wr_alloc>,<mshr>:<N>:<merge>,<mq> | none}
-gmem_skip_L1D                          0 # global memory access skip L1D cache (implements -Xptxas -dlcm=cg, default=no skip)
-gpgpu_perfect_mem                      0 # enable perfect memory mode (no cache miss)
-n_regfile_gating_group                    4 # group of lanes that should be read/written together)
-gpgpu_clock_gated_reg_file                    0 # enable clock gated reg file for power calculations
-gpgpu_clock_gated_lanes                    0 # enable clock gated lanes for power calculations
-gpgpu_shader_registers                32768 # Number of registers per shader core. Limits number of concurrent CTAs. (default 8192)
-gpgpu_shader_cta                       8 # Maximum number of concurrent CTAs in shader (default 8)
-gpgpu_num_cta_barriers                   16 # Maximum number of named barriers per CTA (default 16)
-gpgpu_n_clusters                      15 # number of processing clusters
-gpgpu_n_cores_per_cluster                    1 # number of simd cores per cluster
-gpgpu_n_cluster_ejection_buffer_size                    8 # number of packets in ejection buffer
-gpgpu_n_ldst_response_buffer_size                    2 # number of response packets in ld/st unit ejection buffer
-gpgpu_shmem_size                   16384 # Size of shared memory per shader core (default 16kB)
-gpgpu_shmem_size                   49152 # Size of shared memory per shader core (default 16kB)
-gpgpu_shmem_size_PrefL1                16384 # Size of shared memory per shader core (default 16kB)
-gpgpu_shmem_size_PrefShared                16384 # Size of shared memory per shader core (default 16kB)
-gpgpu_shmem_num_banks                   32 # Number of banks in the shared memory in each shader core (default 16)
-gpgpu_shmem_limited_broadcast                    0 # Limit shared memory to do one broadcast per cycle (default on)
-gpgpu_shmem_warp_parts                    1 # Number of portions a warp is divided into for shared memory bank conflict check 
-gpgpu_warpdistro_shader                   -1 # Specify which shader core to collect the warp size distribution from
-gpgpu_warp_issue_shader                    0 # Specify which shader core to collect the warp issue distribution from
-gpgpu_local_mem_map                    1 # Mapping from local memory space address to simulated GPU physical address space (default = enabled)
-gpgpu_num_reg_banks                   16 # Number of register banks (default = 8)
-gpgpu_reg_bank_use_warp_id                    0 # Use warp ID in mapping registers to banks (default = off)
-gpgpu_operand_collector_num_units_sp                    6 # number of collector units (default = 4)
-gpgpu_operand_collector_num_units_sfu                    8 # number of collector units (default = 4)
-gpgpu_operand_collector_num_units_mem                    2 # number of collector units (default = 2)
-gpgpu_operand_collector_num_units_gen                    0 # number of collector units (default = 0)
-gpgpu_operand_collector_num_in_ports_sp                    2 # number of collector unit in ports (default = 1)
-gpgpu_operand_collector_num_in_ports_sfu                    1 # number of collector unit in ports (default = 1)
-gpgpu_operand_collector_num_in_ports_mem                    1 # number of collector unit in ports (default = 1)
-gpgpu_operand_collector_num_in_ports_gen                    0 # number of collector unit in ports (default = 0)
-gpgpu_operand_collector_num_out_ports_sp                    2 # number of collector unit in ports (default = 1)
-gpgpu_operand_collector_num_out_ports_sfu                    1 # number of collector unit in ports (default = 1)
-gpgpu_operand_collector_num_out_ports_mem                    1 # number of collector unit in ports (default = 1)
-gpgpu_operand_collector_num_out_ports_gen                    0 # number of collector unit in ports (default = 0)
-gpgpu_coalesce_arch                   13 # Coalescing arch (default = 13, anything else is off for now)
-gpgpu_num_sched_per_core                    2 # Number of warp schedulers per core
-gpgpu_max_insn_issue_per_warp                    1 # Max number of instructions that can be issued per warp in one cycle by scheduler
-gpgpu_simt_core_sim_order                    1 # Select the simulation order of cores in a cluster (0=Fix, 1=Round-Robin)
-gpgpu_pipeline_widths        2,1,1,2,1,1,2 # Pipeline widths ID_OC_SP,ID_OC_SFU,ID_OC_MEM,OC_EX_SP,OC_EX_SFU,OC_EX_MEM,EX_WB
-gpgpu_num_sp_units                     2 # Number of SP units (default=1)
-gpgpu_num_sfu_units                    1 # Number of SF units (default=1)
-gpgpu_num_mem_units                    1 # Number if ldst units (default=1) WARNING: not hooked up to anything
-gpgpu_scheduler                      gto # Scheduler configuration: < lrr | gto | two_level_active > If two_level_active:<num_active_warps>:<inner_prioritization>:<outer_prioritization>For complete list of prioritization values see shader.h enum scheduler_prioritization_typeDefault: gto
-gpgpu_dram_scheduler                    1 # 0 = fifo, 1 = FR-FCFS (defaul)
-gpgpu_dram_partition_queues              8:8:8:8 # i2$:$2d:d2$:$2i
-l2_ideal                               0 # Use a ideal L2 cache that always hit
-gpgpu_cache:dl2     64:128:8,L:B:m:W:L,A:32:4,4:0,32 # unified banked L2 data cache config  {<nsets>:<bsize>:<assoc>,<rep>:<wr>:<alloc>:<wr_alloc>,<mshr>:<N>:<merge>,<mq>}
-gpgpu_cache:dl2_texture_only                    0 # L2 cache used for texture only
-gpgpu_n_mem                            6 # number of memory modules (e.g. memory controllers) in gpu
-gpgpu_n_sub_partition_per_mchannel                    2 # number of memory subpartition in each memory module
-gpgpu_n_mem_per_ctrlr                    2 # number of memory chips per memory controller
-gpgpu_memlatency_stat                   14 # track and display latency statistics 0x2 enables MC, 0x4 enables queue logs
-gpgpu_frfcfs_dram_sched_queue_size                   16 # 0 = unlimited (default); # entries per chip
-gpgpu_dram_return_queue_size                  116 # 0 = unlimited (default); # entries per chip
-gpgpu_dram_buswidth                    4 # default = 4 bytes (8 bytes per cycle at DDR)
-gpgpu_dram_burst_length                    8 # Burst length of each DRAM request (default = 4 data bus cycle)
-dram_data_command_freq_ratio                    4 # Frequency ratio between DRAM data bus and command bus (default = 2 times, i.e. DDR)
-gpgpu_dram_timing_opt nbk=16:CCD=2:RRD=6:RCD=12:RAS=28:RP=12:RC=40: CL=12:WL=4:CDLR=5:WR=12:nbkgrp=4:CCDL=3:RTPL=2 # DRAM timing parameters = {nbk:tCCD:tRRD:tRCD:tRAS:tRP:tRC:CL:WL:tCDLR:tWR:nbkgrp:tCCDL:tRTPL}
-rop_latency                          120 # ROP queue latency (default 85)
-dram_latency                         100 # DRAM latency (default 30)
-gpgpu_mem_addr_mapping dramid@8;00000000.00000000.00000000.00000000.0000RRRR.RRRRRRRR.BBBCCCCB.CCSSSSSS # mapping memory address to dram model {dramid@<start bit>;<memory address map>}
-gpgpu_mem_addr_test                    0 # run sweep test to check address mapping for aliased address
-gpgpu_mem_address_mask                    1 # 0 = old addressing mask, 1 = new addressing mask, 2 = new add. mask + flipped bank sel and chip sel bits
-gpuwattch_xml_file  gpuwattch_gtx480.xml # GPUWattch XML file
-power_simulation_enabled                    1 # Turn on power simulator (1=On, 0=Off)
-power_per_cycle_dump                    0 # Dump detailed power output each cycle
-power_trace_enabled                    0 # produce a file for the power trace (1=On, 0=Off)
-power_trace_zlevel                     6 # Compression level of the power trace output log (0=no comp, 9=highest)
-steady_power_levels_enabled                    0 # produce a file for the steady power levels (1=On, 0=Off)
-steady_state_definition                  8:4 # allowed deviation:number of samples
-gpgpu_max_cycle                        0 # terminates gpu simulation early (0 = no limit)
-gpgpu_max_insn                         0 # terminates gpu simulation early (0 = no limit)
-gpgpu_max_cta                          0 # terminates gpu simulation early (0 = no limit)
-gpgpu_runtime_stat                   500 # display runtime statistics such as dram utilization {<freq>:<flag>}
-liveness_message_freq                    1 # Minimum number of seconds between simulation liveness messages (0 = always print)
-gpgpu_flush_l1_cache                    0 # Flush L1 cache at the end of each kernel call
-gpgpu_flush_l2_cache                    0 # Flush L2 cache at the end of each kernel call
-gpgpu_deadlock_detect                    1 # Stop the simulation at deadlock (1=on (default), 0=off)
-gpgpu_ptx_instruction_classification                    0 # if enabled will classify ptx instruction types per kernel (Max 255 kernels now)
-gpgpu_ptx_sim_mode                     0 # Select between Performance (default) or Functional simulation (1)
-gpgpu_clock_domains 700.0:700.0:700.0:924.0 # Clock Domain Frequencies in MhZ {<Core Clock>:<ICNT Clock>:<L2 Clock>:<DRAM Clock>}
-gpgpu_max_concurrent_kernel                    8 # maximum kernels that can run concurrently on GPU
-gpgpu_cflog_interval                    0 # Interval between each snapshot in control flow logger
-visualizer_enabled                     0 # Turn on visualizer output (1=On, 0=Off)
-visualizer_outputfile                 NULL # Specifies the output log file for visualizer
-visualizer_zlevel                      6 # Compression level of the visualizer output log (0=no comp, 9=highest)
-trace_enabled                          0 # Turn on traces
-trace_components                    none # comma seperated list of traces to enable. Complete list found in trace_streams.tup. Default none
-trace_sampling_core                    0 # The core which is printed using CORE_DPRINTF. Default 0
-trace_sampling_memory_partition                   -1 # The memory partition which is printed using MEMPART_DPRINTF. Default -1 (i.e. all)
-enable_ptx_file_line_stats                    1 # Turn on PTX source line statistic profiling. (1 = On)
-ptx_line_stats_filename gpgpu_inst_stats.txt # Output file for PTX source line statistics.
-save_embedded_ptx                      0 # saves ptx files embedded in binary as <n>.ptx
-keep                                   0 # keep intermediate files created by GPGPU-Sim when interfacing with external programs
-gpgpu_ptx_save_converted_ptxplus                    0 # Saved converted ptxplus to a file
-ptx_opcode_latency_int         4,13,4,5,145 # Opcode latencies for integers <ADD,MAX,MUL,MAD,DIV>Default 1,1,19,25,145
-ptx_opcode_latency_fp          4,13,4,5,39 # Opcode latencies for single precision floating points <ADD,MAX,MUL,MAD,DIV>Default 1,1,1,1,30
-ptx_opcode_latency_dp         8,19,8,8,330 # Opcode latencies for double precision floating points <ADD,MAX,MUL,MAD,DIV>Default 8,8,8,8,335
-ptx_opcode_initiation_int            1,2,2,1,8 # Opcode initiation intervals for integers <ADD,MAX,MUL,MAD,DIV>Default 1,1,4,4,32
-ptx_opcode_initiation_fp            1,2,1,1,4 # Opcode initiation intervals for single precision floating points <ADD,MAX,MUL,MAD,DIV>Default 1,1,1,1,5
-ptx_opcode_initiation_dp         8,16,8,8,130 # Opcode initiation intervals for double precision floating points <ADD,MAX,MUL,MAD,DIV>Default 8,8,8,8,130
DRAM Timing Options:
nbk                                    16 # number of banks
CCD                                     2 # column to column delay
RRD                                     6 # minimal delay between activation of rows in different banks
RCD                                    12 # row to column delay
RAS                                    28 # time needed to activate row
RP                                     12 # time needed to precharge (deactivate) row
RC                                     40 # row cycle time
CDLR                                    5 # switching from write to read (changes tWTR)
WR                                     12 # last data-in to row precharge
CL                                     12 # CAS latency
WL                                      4 # Write latency
nbkgrp                                  4 # number of bank groups
CCDL                                    3 # column to column delay between accesses to different bank groups
RTPL                                    2 # read to precharge delay between accesses to different bank groups
Total number of memory sub partition = 12
addr_dec_mask[CHIP]  = 0000000000000000 	high:64 low:0
addr_dec_mask[BK]    = 000000000000e100 	high:16 low:8
addr_dec_mask[ROW]   = 000000000fff0000 	high:28 low:16
addr_dec_mask[COL]   = 0000000000001eff 	high:13 low:0
addr_dec_mask[BURST] = 000000000000003f 	high:6 low:0
sub_partition_id_mask = 0000000000000100
GPGPU-Sim uArch: clock freqs: 700000000.000000:700000000.000000:700000000.000000:924000000.000000
GPGPU-Sim uArch: clock periods: 0.00000000142857142857:0.00000000142857142857:0.00000000142857142857:0.00000000108225108225
*** Initializing Memory Statistics ***
GPGPU-Sim uArch: interconnect node map (shaderID+MemID to icntID)
GPGPU-Sim uArch: Memory nodes ID start from index: 15
GPGPU-Sim uArch:    0   1   2   3   4
GPGPU-Sim uArch:    5   6   7   8   9
GPGPU-Sim uArch:   10  11  12  13  14
GPGPU-Sim uArch:   15  16  17  18  19
GPGPU-Sim uArch:   20  21  22  23  24
GPGPU-Sim uArch:   25  26
GPGPU-Sim uArch: interconnect node reverse map (icntID to shaderID+MemID)
GPGPU-Sim uArch: Memory nodes start from ID: 15
GPGPU-Sim uArch:    0   1   2   3   4
GPGPU-Sim uArch:    5   6   7   8   9
GPGPU-Sim uArch:   10  11  12  13  14
GPGPU-Sim uArch:   15  16  17  18  19
GPGPU-Sim uArch:   20  21  22  23  24
GPGPU-Sim uArch:   25  26
32a7305302a29aa7ec772f3b744d6b36  /home/bing/cu_learn/im2col/src/bin/main
GPGPU-Sim uArch: performance model initialization complete.
GPGPU-Sim PTX: __cudaRegisterFatBinary, fat_cubin_handle = 1, filename=/home/bing/cu_learn/im2col/src/col2im.cu
self exe links to: /home/bing/cu_learn/im2col/src/bin/main
Running md5sum using "md5sum /home/bing/cu_learn/im2col/src/bin/main "
Running cuobjdump using "$CUDA_INSTALL_PATH/bin/cuobjdump -ptx -elf -sass /home/bing/cu_learn/im2col/src/bin/main > _cuobjdump_complete_output_DPGZcA"
Parsing file _cuobjdump_complete_output_DPGZcA
######### cuobjdump parser ########
## Adding new section ELF
Adding arch: sm_20
Adding identifier: /home/bing/cu_learn/im2col/src/col2im.cu
## Adding new section PTX
Adding ptx filename: _cuobjdump_1.ptx
Adding arch: sm_20
Adding identifier: /home/bing/cu_learn/im2col/src/col2im.cu
## Adding new section ELF
Adding arch: sm_20
Adding identifier: /home/bing/cu_learn/im2col/src/cuda_conv.cu
## Adding new section PTX
Adding ptx filename: _cuobjdump_2.ptx
Adding arch: sm_20
Adding identifier: /home/bing/cu_learn/im2col/src/cuda_conv.cu
## Adding new section ELF
Adding arch: sm_20
Adding identifier: /home/bing/cu_learn/im2col/src/fc.cu
## Adding new section PTX
Adding ptx filename: _cuobjdump_3.ptx
Adding arch: sm_20
Adding identifier: /home/bing/cu_learn/im2col/src/fc.cu
## Adding new section ELF
Adding arch: sm_20
Adding identifier: /home/bing/cu_learn/im2col/src/im2col.cu
## Adding new section PTX
Adding ptx filename: _cuobjdump_4.ptx
Adding arch: sm_20
Adding identifier: /home/bing/cu_learn/im2col/src/im2col.cu
## Adding new section ELF
Adding arch: sm_20
Adding identifier: /home/bing/cu_learn/im2col/src/pooling.cu
## Adding new section PTX
Adding ptx filename: _cuobjdump_5.ptx
Adding arch: sm_20
Adding identifier: /home/bing/cu_learn/im2col/src/pooling.cu
## Adding new section ELF
Adding arch: sm_20
Adding identifier: /home/bing/cu_learn/im2col/src/sigmoid.cu
## Adding new section PTX
Adding ptx filename: _cuobjdump_6.ptx
Adding arch: sm_20
Adding identifier: /home/bing/cu_learn/im2col/src/sigmoid.cu
Done parsing!!!
GPGPU-Sim PTX: __cudaRegisterFunction _Z17col2im_gpu_kernelIdEviPKT_iiiiiiiiPS0_ : hostFun 0x0x401370, fat_cubin_handle = 1
GPGPU-Sim PTX: instruction assembly for function '_Z17col2im_gpu_kernelIfEviPKT_iiiiiiiiPS0_'...   done.
GPGPU-Sim PTX: finding reconvergence points for '_Z17col2im_gpu_kernelIfEviPKT_iiiiiiiiPS0_'...
GPGPU-Sim PTX: Finding dominators for '_Z17col2im_gpu_kernelIfEviPKT_iiiiiiiiPS0_'...
GPGPU-Sim PTX: Finding immediate dominators for '_Z17col2im_gpu_kernelIfEviPKT_iiiiiiiiPS0_'...
GPGPU-Sim PTX: Finding postdominators for '_Z17col2im_gpu_kernelIfEviPKT_iiiiiiiiPS0_'...
GPGPU-Sim PTX: Finding immediate postdominators for '_Z17col2im_gpu_kernelIfEviPKT_iiiiiiiiPS0_'...
GPGPU-Sim PTX: pre-decoding instructions for '_Z17col2im_gpu_kernelIfEviPKT_iiiiiiiiPS0_'...
GPGPU-Sim PTX: reconvergence points for _Z17col2im_gpu_kernelIfEviPKT_iiiiiiiiPS0_...
GPGPU-Sim PTX:  1 (potential) branch divergence @  PC=0x040 (_1.ptx:79) @%p1 bra $Lt_0_4866;
GPGPU-Sim PTX:    immediate post dominator      @  PC=0x338 (_1.ptx:195) exit;
GPGPU-Sim PTX:  2 (potential) branch divergence @  PC=0x0d0 (_1.ptx:99) @%p2 bra $Lt_0_5890;
GPGPU-Sim PTX:    immediate post dominator      @  PC=0x100 (_1.ptx:108) div.s32 %r21, %r6, %r15;
GPGPU-Sim PTX:  3 (potential) branch divergence @  PC=0x0f0 (_1.ptx:104) bra.uni $Lt_0_5634;
GPGPU-Sim PTX:    immediate post dominator      @  PC=0x100 (_1.ptx:108) div.s32 %r21, %r6, %r15;
GPGPU-Sim PTX:  4 (potential) branch divergence @  PC=0x120 (_1.ptx:112) @%p3 bra $Lt_0_6402;
GPGPU-Sim PTX:    immediate post dominator      @  PC=0x150 (_1.ptx:122) mov.s32 %r27, %r26;
GPGPU-Sim PTX:  5 (potential) branch divergence @  PC=0x140 (_1.ptx:117) bra.uni $Lt_0_6146;
GPGPU-Sim PTX:    immediate post dominator      @  PC=0x150 (_1.ptx:122) mov.s32 %r27, %r26;
GPGPU-Sim PTX:  6 (potential) branch divergence @  PC=0x178 (_1.ptx:127) @%p4 bra $Lt_0_9218;
GPGPU-Sim PTX:    immediate post dominator      @  PC=0x310 (_1.ptx:188) st.global.f32 [%rd5+0], %f1;
GPGPU-Sim PTX:  7 (potential) branch divergence @  PC=0x250 (_1.ptx:157) @!%p5 bra $Lt_0_7426;
GPGPU-Sim PTX:    immediate post dominator      @  PC=0x2e8 (_1.ptx:180) add.s32 %r27, %r27, 1;
GPGPU-Sim PTX:  8 (potential) branch divergence @  PC=0x2e0 (_1.ptx:178) @%p6 bra $Lt_0_7938;
GPGPU-Sim PTX:    immediate post dominator      @  PC=0x2e8 (_1.ptx:180) add.s32 %r27, %r27, 1;
GPGPU-Sim PTX:  9 (potential) branch divergence @  PC=0x2f8 (_1.ptx:182) @%p7 bra $Lt_0_7170;
GPGPU-Sim PTX:    immediate post dominator      @  PC=0x300 (_1.ptx:183) bra.uni $Lt_0_6658;
GPGPU-Sim PTX: 10 (potential) branch divergence @  PC=0x300 (_1.ptx:183) bra.uni $Lt_0_6658;
GPGPU-Sim PTX:    immediate post dominator      @  PC=0x310 (_1.ptx:188) st.global.f32 [%rd5+0], %f1;
GPGPU-Sim PTX: 11 (potential) branch divergence @  PC=0x330 (_1.ptx:192) @%p8 bra $Lt_0_5378;
GPGPU-Sim PTX:    immediate post dominator      @  PC=0x338 (_1.ptx:195) exit;
GPGPU-Sim PTX: ... end of reconvergence points for _Z17col2im_gpu_kernelIfEviPKT_iiiiiiiiPS0_
GPGPU-Sim PTX: ... done pre-decoding instructions for '_Z17col2im_gpu_kernelIfEviPKT_iiiiiiiiPS0_'.
GPGPU-Sim PTX: instruction assembly for function '_Z17col2im_gpu_kernelIdEviPKT_iiiiiiiiPS0_'...   done.
GPGPU-Sim PTX: finding reconvergence points for '_Z17col2im_gpu_kernelIdEviPKT_iiiiiiiiPS0_'...
GPGPU-Sim PTX: Finding dominators for '_Z17col2im_gpu_kernelIdEviPKT_iiiiiiiiPS0_'...
GPGPU-Sim PTX: Finding immediate dominators for '_Z17col2im_gpu_kernelIdEviPKT_iiiiiiiiPS0_'...
GPGPU-Sim PTX: Finding postdominators for '_Z17col2im_gpu_kernelIdEviPKT_iiiiiiiiPS0_'...
GPGPU-Sim PTX: Finding immediate postdominators for '_Z17col2im_gpu_kernelIdEviPKT_iiiiiiiiPS0_'...
GPGPU-Sim PTX: pre-decoding instructions for '_Z17col2im_gpu_kernelIdEviPKT_iiiiiiiiPS0_'...
GPGPU-Sim PTX: reconvergence points for _Z17col2im_gpu_kernelIdEviPKT_iiiiiiiiPS0_...
GPGPU-Sim PTX:  1 (potential) branch divergence @  PC=0x380 (_1.ptx:227) @%p1 bra $Lt_1_4866;
GPGPU-Sim PTX:    immediate post dominator      @  PC=0x678 (_1.ptx:343) exit;
GPGPU-Sim PTX:  2 (potential) branch divergence @  PC=0x410 (_1.ptx:247) @%p2 bra $Lt_1_5890;
GPGPU-Sim PTX:    immediate post dominator      @  PC=0x440 (_1.ptx:256) div.s32 %r21, %r6, %r15;
GPGPU-Sim PTX:  3 (potential) branch divergence @  PC=0x430 (_1.ptx:252) bra.uni $Lt_1_5634;
GPGPU-Sim PTX:    immediate post dominator      @  PC=0x440 (_1.ptx:256) div.s32 %r21, %r6, %r15;
GPGPU-Sim PTX:  4 (potential) branch divergence @  PC=0x460 (_1.ptx:260) @%p3 bra $Lt_1_6402;
GPGPU-Sim PTX:    immediate post dominator      @  PC=0x490 (_1.ptx:270) mov.s32 %r27, %r26;
GPGPU-Sim PTX:  5 (potential) branch divergence @  PC=0x480 (_1.ptx:265) bra.uni $Lt_1_6146;
GPGPU-Sim PTX:    immediate post dominator      @  PC=0x490 (_1.ptx:270) mov.s32 %r27, %r26;
GPGPU-Sim PTX:  6 (potential) branch divergence @  PC=0x4b8 (_1.ptx:275) @%p4 bra $Lt_1_9218;
GPGPU-Sim PTX:    immediate post dominator      @  PC=0x650 (_1.ptx:336) st.global.f64 [%rd5+0], %fd1;
GPGPU-Sim PTX:  7 (potential) branch divergence @  PC=0x590 (_1.ptx:305) @!%p5 bra $Lt_1_7426;
GPGPU-Sim PTX:    immediate post dominator      @  PC=0x628 (_1.ptx:328) add.s32 %r27, %r27, 1;
GPGPU-Sim PTX:  8 (potential) branch divergence @  PC=0x620 (_1.ptx:326) @%p6 bra $Lt_1_7938;
GPGPU-Sim PTX:    immediate post dominator      @  PC=0x628 (_1.ptx:328) add.s32 %r27, %r27, 1;
GPGPU-Sim PTX:  9 (potential) branch divergence @  PC=0x638 (_1.ptx:330) @%p7 bra $Lt_1_7170;
GPGPU-Sim PTX:    immediate post dominator      @  PC=0x640 (_1.ptx:331) bra.uni $Lt_1_6658;
GPGPU-Sim PTX: 10 (potential) branch divergence @  PC=0x640 (_1.ptx:331) bra.uni $Lt_1_6658;
GPGPU-Sim PTX:    immediate post dominator      @  PC=0x650 (_1.ptx:336) st.global.f64 [%rd5+0], %fd1;
GPGPU-Sim PTX: 11 (potential) branch divergence @  PC=0x670 (_1.ptx:340) @%p8 bra $Lt_1_5378;
GPGPU-Sim PTX:    immediate post dominator      @  PC=0x678 (_1.ptx:343) exit;
GPGPU-Sim PTX: ... end of reconvergence points for _Z17col2im_gpu_kernelIdEviPKT_iiiiiiiiPS0_
GPGPU-Sim PTX: ... done pre-decoding instructions for '_Z17col2im_gpu_kernelIdEviPKT_iiiiiiiiPS0_'.
GPGPU-Sim PTX: finished parsing EMBEDDED .ptx file _1.ptx
Adding _cuobjdump_1.ptx with cubin handle 1
GPGPU-Sim PTX: extracting embedded .ptx to temporary file "_ptx_TOyR48"
Running: cat _ptx_TOyR48 | sed 's/.version 1.5/.version 1.4/' | sed 's/, texmode_independent//' | sed 's/\(\.extern \.const\[1\] .b8 \w\+\)\[\]/\1\[1\]/' | sed 's/const\[.\]/const\[0\]/g' > _ptx2_7idMWH
GPGPU-Sim PTX: generating ptxinfo using "$CUDA_INSTALL_PATH/bin/ptxas --gpu-name=sm_20 -v _ptx2_7idMWH --output-file  /dev/null 2> _ptx_TOyR48info"
GPGPU-Sim PTX: Kernel '_Z17col2im_gpu_kernelIdEviPKT_iiiiiiiiPS0_' : regs=23, lmem=0, smem=0, cmem=88
GPGPU-Sim PTX: Kernel '_Z17col2im_gpu_kernelIfEviPKT_iiiiiiiiPS0_' : regs=21, lmem=0, smem=0, cmem=88
GPGPU-Sim PTX: removing ptxinfo using "rm -f _ptx_TOyR48 _ptx2_7idMWH _ptx_TOyR48info"
GPGPU-Sim PTX: loading globals with explicit initializers... 
GPGPU-Sim PTX: finished loading globals (0 bytes total).
GPGPU-Sim PTX: loading constants with explicit initializers...  done.
GPGPU-Sim PTX: __cudaRegisterFunction _Z17col2im_gpu_kernelIfEviPKT_iiiiiiiiPS0_ : hostFun 0x0x401380, fat_cubin_handle = 1
GPGPU-Sim PTX: __cudaRegisterFatBinary, fat_cubin_handle = 2, filename=/home/bing/cu_learn/im2col/src/cuda_conv.cu
GPGPU-Sim PTX: __cudaRegisterFatBinary, fat_cubin_handle = 3, filename=/home/bing/cu_learn/im2col/src/fc.cu
GPGPU-Sim PTX: __cudaRegisterFunction _Z12BiasBackwardIfEviiPKT_PS0_ : hostFun 0x0x4043e0, fat_cubin_handle = 3
GPGPU-Sim PTX: instruction assembly for function '_Z13fc_gpu_kernelPfS_S_iii'...   done.
GPGPU-Sim PTX: finding reconvergence points for '_Z13fc_gpu_kernelPfS_S_iii'...
GPGPU-Sim PTX: Finding dominators for '_Z13fc_gpu_kernelPfS_S_iii'...
GPGPU-Sim PTX: Finding immediate dominators for '_Z13fc_gpu_kernelPfS_S_iii'...
GPGPU-Sim PTX: Finding postdominators for '_Z13fc_gpu_kernelPfS_S_iii'...
GPGPU-Sim PTX: Finding immediate postdominators for '_Z13fc_gpu_kernelPfS_S_iii'...
GPGPU-Sim PTX: pre-decoding instructions for '_Z13fc_gpu_kernelPfS_S_iii'...
GPGPU-Sim PTX: reconvergence points for _Z13fc_gpu_kernelPfS_S_iii...
GPGPU-Sim PTX:  1 (potential) branch divergence @  PC=0x718 (_3.ptx:84) @%p1 bra $Lt_0_2306;
GPGPU-Sim PTX:    immediate post dominator      @  PC=0x838 (_3.ptx:126) exit;
GPGPU-Sim PTX:  2 (potential) branch divergence @  PC=0x738 (_3.ptx:88) @%p2 bra $Lt_0_2818;
GPGPU-Sim PTX:    immediate post dominator      @  PC=0x838 (_3.ptx:126) exit;
GPGPU-Sim PTX:  3 (potential) branch divergence @  PC=0x830 (_3.ptx:122) @%p3 bra $Lt_0_3330;
GPGPU-Sim PTX:    immediate post dominator      @  PC=0x838 (_3.ptx:126) exit;
GPGPU-Sim PTX: ... end of reconvergence points for _Z13fc_gpu_kernelPfS_S_iii
GPGPU-Sim PTX: ... done pre-decoding instructions for '_Z13fc_gpu_kernelPfS_S_iii'.
GPGPU-Sim PTX: instruction assembly for function '_Z17convdw_gpu_kernelPfS_S_iii'...   done.
GPGPU-Sim PTX: finding reconvergence points for '_Z17convdw_gpu_kernelPfS_S_iii'...
GPGPU-Sim PTX: Finding dominators for '_Z17convdw_gpu_kernelPfS_S_iii'...
GPGPU-Sim PTX: Finding immediate dominators for '_Z17convdw_gpu_kernelPfS_S_iii'...
GPGPU-Sim PTX: Finding postdominators for '_Z17convdw_gpu_kernelPfS_S_iii'...
GPGPU-Sim PTX: Finding immediate postdominators for '_Z17convdw_gpu_kernelPfS_S_iii'...
GPGPU-Sim PTX: pre-decoding instructions for '_Z17convdw_gpu_kernelPfS_S_iii'...
GPGPU-Sim PTX: reconvergence points for _Z17convdw_gpu_kernelPfS_S_iii...
GPGPU-Sim PTX:  1 (potential) branch divergence @  PC=0x8d8 (_3.ptx:163) @%p1 bra $Lt_1_2306;
GPGPU-Sim PTX:    immediate post dominator      @  PC=0x9f8 (_3.ptx:205) exit;
GPGPU-Sim PTX:  2 (potential) branch divergence @  PC=0x8f8 (_3.ptx:167) @%p2 bra $Lt_1_2818;
GPGPU-Sim PTX:    immediate post dominator      @  PC=0x9f8 (_3.ptx:205) exit;
GPGPU-Sim PTX:  3 (potential) branch divergence @  PC=0x9f0 (_3.ptx:201) @%p3 bra $Lt_1_3330;
GPGPU-Sim PTX:    immediate post dominator      @  PC=0x9f8 (_3.ptx:205) exit;
GPGPU-Sim PTX: ... end of reconvergence points for _Z17convdw_gpu_kernelPfS_S_iii
GPGPU-Sim PTX: ... done pre-decoding instructions for '_Z17convdw_gpu_kernelPfS_S_iii'.
GPGPU-Sim PTX: instruction assembly for function '_Z17convdx_gpu_kernelPfS_S_iii'...   done.
GPGPU-Sim PTX: finding reconvergence points for '_Z17convdx_gpu_kernelPfS_S_iii'...
GPGPU-Sim PTX: Finding dominators for '_Z17convdx_gpu_kernelPfS_S_iii'...
GPGPU-Sim PTX: Finding immediate dominators for '_Z17convdx_gpu_kernelPfS_S_iii'...
GPGPU-Sim PTX: Finding postdominators for '_Z17convdx_gpu_kernelPfS_S_iii'...
GPGPU-Sim PTX: Finding immediate postdominators for '_Z17convdx_gpu_kernelPfS_S_iii'...
GPGPU-Sim PTX: pre-decoding instructions for '_Z17convdx_gpu_kernelPfS_S_iii'...
GPGPU-Sim PTX: reconvergence points for _Z17convdx_gpu_kernelPfS_S_iii...
GPGPU-Sim PTX:  1 (potential) branch divergence @  PC=0xa98 (_3.ptx:242) @%p1 bra $Lt_2_2306;
GPGPU-Sim PTX:    immediate post dominator      @  PC=0xbb0 (_3.ptx:283) exit;
GPGPU-Sim PTX:  2 (potential) branch divergence @  PC=0xab8 (_3.ptx:246) @%p2 bra $Lt_2_2818;
GPGPU-Sim PTX:    immediate post dominator      @  PC=0xbb0 (_3.ptx:283) exit;
GPGPU-Sim PTX:  3 (potential) branch divergence @  PC=0xba8 (_3.ptx:279) @%p3 bra $Lt_2_3330;
GPGPU-Sim PTX:    immediate post dominator      @  PC=0xbb0 (_3.ptx:283) exit;
GPGPU-Sim PTX: ... end of reconvergence points for _Z17convdx_gpu_kernelPfS_S_iii
GPGPU-Sim PTX: ... done pre-decoding instructions for '_Z17convdx_gpu_kernelPfS_S_iii'.
GPGPU-Sim PTX: instruction assembly for function '_Z11BiasForwardIfEvPT_S1_iii'...   done.
GPGPU-Sim PTX: finding reconvergence points for '_Z11BiasForwardIfEvPT_S1_iii'...
GPGPU-Sim PTX: Finding dominators for '_Z11BiasForwardIfEvPT_S1_iii'...
GPGPU-Sim PTX: Finding immediate dominators for '_Z11BiasForwardIfEvPT_S1_iii'...
GPGPU-Sim PTX: Finding postdominators for '_Z11BiasForwardIfEvPT_S1_iii'...
GPGPU-Sim PTX: Finding immediate postdominators for '_Z11BiasForwardIfEvPT_S1_iii'...
GPGPU-Sim PTX: pre-decoding instructions for '_Z11BiasForwardIfEvPT_S1_iii'...
GPGPU-Sim PTX: reconvergence points for _Z11BiasForwardIfEvPT_S1_iii...
GPGPU-Sim PTX:  1 (potential) branch divergence @  PC=0xc50 (_3.ptx:319) @%p1 bra $Lt_3_1282;
GPGPU-Sim PTX:    immediate post dominator      @  PC=0xcc8 (_3.ptx:337) exit;
GPGPU-Sim PTX: ... end of reconvergence points for _Z11BiasForwardIfEvPT_S1_iii
GPGPU-Sim PTX: ... done pre-decoding instructions for '_Z11BiasForwardIfEvPT_S1_iii'.
GPGPU-Sim PTX: instruction assembly for function '_Z12BiasBackwardIfEviiPKT_PS0_'...   done.
GPGPU-Sim PTX: finding reconvergence points for '_Z12BiasBackwardIfEviiPKT_PS0_'...
GPGPU-Sim PTX: Finding dominators for '_Z12BiasBackwardIfEviiPKT_PS0_'...
GPGPU-Sim PTX: Finding immediate dominators for '_Z12BiasBackwardIfEviiPKT_PS0_'...
GPGPU-Sim PTX: Finding postdominators for '_Z12BiasBackwardIfEviiPKT_PS0_'...
GPGPU-Sim PTX: Finding immediate postdominators for '_Z12BiasBackwardIfEviiPKT_PS0_'...
GPGPU-Sim PTX: pre-decoding instructions for '_Z12BiasBackwardIfEviiPKT_PS0_'...
GPGPU-Sim PTX: reconvergence points for _Z12BiasBackwardIfEviiPKT_PS0_...
GPGPU-Sim PTX:  1 (potential) branch divergence @  PC=0xd10 (_3.ptx:362) @%p1 bra $Lt_4_1282;
GPGPU-Sim PTX:    immediate post dominator      @  PC=0xde8 (_3.ptx:394) exit;
GPGPU-Sim PTX:  2 (potential) branch divergence @  PC=0xde0 (_3.ptx:391) @%p2 bra $Lt_4_1794;
GPGPU-Sim PTX:    immediate post dominator      @  PC=0xde8 (_3.ptx:394) exit;
GPGPU-Sim PTX: ... end of reconvergence points for _Z12BiasBackwardIfEviiPKT_PS0_
GPGPU-Sim PTX: ... done pre-decoding instructions for '_Z12BiasBackwardIfEviiPKT_PS0_'.
GPGPU-Sim PTX: finished parsing EMBEDDED .ptx file _3.ptx
Adding _cuobjdump_3.ptx with cubin handle 3
GPGPU-Sim PTX: extracting embedded .ptx to temporary file "_ptx_3c1Jah"
Running: cat _ptx_3c1Jah | sed 's/.version 1.5/.version 1.4/' | sed 's/, texmode_independent//' | sed 's/\(\.extern \.const\[1\] .b8 \w\+\)\[\]/\1\[1\]/' | sed 's/const\[.\]/const\[0\]/g' > _ptx2_sHhKoQ
GPGPU-Sim PTX: generating ptxinfo using "$CUDA_INSTALL_PATH/bin/ptxas --gpu-name=sm_20 -v _ptx2_sHhKoQ --output-file  /dev/null 2> _ptx_3c1Jahinfo"
GPGPU-Sim PTX: Kernel '_Z12BiasBackwardIfEviiPKT_PS0_' : regs=13, lmem=0, smem=0, cmem=56
GPGPU-Sim PTX: Kernel '_Z11BiasForwardIfEvPT_S1_iii' : regs=8, lmem=0, smem=0, cmem=60
GPGPU-Sim PTX: Kernel '_Z17convdx_gpu_kernelPfS_S_iii' : regs=12, lmem=0, smem=0, cmem=68
GPGPU-Sim PTX: Kernel '_Z17convdw_gpu_kernelPfS_S_iii' : regs=15, lmem=0, smem=0, cmem=68
GPGPU-Sim PTX: Kernel '_Z13fc_gpu_kernelPfS_S_iii' : regs=14, lmem=0, smem=0, cmem=68
GPGPU-Sim PTX: removing ptxinfo using "rm -f _ptx_3c1Jah _ptx2_sHhKoQ _ptx_3c1Jahinfo"
GPGPU-Sim PTX: loading globals with explicit initializers... 
GPGPU-Sim PTX: finished loading globals (0 bytes total).
GPGPU-Sim PTX: loading constants with explicit initializers...  done.
GPGPU-Sim PTX: __cudaRegisterFunction _Z11BiasForwardIfEvPT_S1_iii : hostFun 0x0x4043d0, fat_cubin_handle = 3
GPGPU-Sim PTX: __cudaRegisterFunction _Z17convdx_gpu_kernelPfS_S_iii : hostFun 0x0x402be0, fat_cubin_handle = 3
GPGPU-Sim PTX: __cudaRegisterFunction _Z17convdw_gpu_kernelPfS_S_iii : hostFun 0x0x402cd0, fat_cubin_handle = 3
GPGPU-Sim PTX: __cudaRegisterFunction _Z13fc_gpu_kernelPfS_S_iii : hostFun 0x0x402dc0, fat_cubin_handle = 3
GPGPU-Sim PTX: __cudaRegisterFatBinary, fat_cubin_handle = 4, filename=/home/bing/cu_learn/im2col/src/im2col.cu
GPGPU-Sim PTX: __cudaRegisterFunction _Z17im2col_gpu_kernelIdEviPKT_iiiiiiiPS0_ : hostFun 0x0x404bb0, fat_cubin_handle = 4
GPGPU-Sim PTX: instruction assembly for function '_Z17im2col_gpu_kernelIfEviPKT_iiiiiiiPS0_'...   done.
GPGPU-Sim PTX: finding reconvergence points for '_Z17im2col_gpu_kernelIfEviPKT_iiiiiiiPS0_'...
GPGPU-Sim PTX: Finding dominators for '_Z17im2col_gpu_kernelIfEviPKT_iiiiiiiPS0_'...
GPGPU-Sim PTX: Finding immediate dominators for '_Z17im2col_gpu_kernelIfEviPKT_iiiiiiiPS0_'...
GPGPU-Sim PTX: Finding postdominators for '_Z17im2col_gpu_kernelIfEviPKT_iiiiiiiPS0_'...
GPGPU-Sim PTX: Finding immediate postdominators for '_Z17im2col_gpu_kernelIfEviPKT_iiiiiiiPS0_'...
GPGPU-Sim PTX: pre-decoding instructions for '_Z17im2col_gpu_kernelIfEviPKT_iiiiiiiPS0_'...
GPGPU-Sim PTX: reconvergence points for _Z17im2col_gpu_kernelIfEviPKT_iiiiiiiPS0_...
GPGPU-Sim PTX:  1 (potential) branch divergence @  PC=0xe30 (_4.ptx:78) @%p1 bra $Lt_0_6146;
GPGPU-Sim PTX:    immediate post dominator      @  PC=0x10d0 (_4.ptx:177) exit;
GPGPU-Sim PTX:  2 (potential) branch divergence @  PC=0xee0 (_4.ptx:103) @!%p2 bra $Lt_0_6914;
GPGPU-Sim PTX:    immediate post dominator      @  PC=0x10b8 (_4.ptx:172) add.u32 %r6, %r6, %r11;
GPGPU-Sim PTX:  3 (potential) branch divergence @  PC=0xfd8 (_4.ptx:139) @!%p3 bra $Lt_0_10242;
GPGPU-Sim PTX:    immediate post dominator      @  PC=0x1060 (_4.ptx:160) st.global.f32 [%rd12+0], %f1;
GPGPU-Sim PTX:  4 (potential) branch divergence @  PC=0xff8 (_4.ptx:143) @%p4 bra $Lt_0_10242;
GPGPU-Sim PTX:    immediate post dominator      @  PC=0x1060 (_4.ptx:160) st.global.f32 [%rd12+0], %f1;
GPGPU-Sim PTX:  5 (potential) branch divergence @  PC=0x1008 (_4.ptx:145) @%p5 bra $Lt_0_10242;
GPGPU-Sim PTX:    immediate post dominator      @  PC=0x1060 (_4.ptx:160) st.global.f32 [%rd12+0], %f1;
GPGPU-Sim PTX:  6 (potential) branch divergence @  PC=0x1018 (_4.ptx:147) @%p6 bra $Lt_0_10242;
GPGPU-Sim PTX:    immediate post dominator      @  PC=0x1060 (_4.ptx:160) st.global.f32 [%rd12+0], %f1;
GPGPU-Sim PTX:  7 (potential) branch divergence @  PC=0x1050 (_4.ptx:155) bra.uni $L_0_4866;
GPGPU-Sim PTX:    immediate post dominator      @  PC=0x1060 (_4.ptx:160) st.global.f32 [%rd12+0], %f1;
GPGPU-Sim PTX:  8 (potential) branch divergence @  PC=0x1080 (_4.ptx:164) @%p7 bra $Lt_0_8194;
GPGPU-Sim PTX:    immediate post dominator      @  PC=0x1088 (_4.ptx:165) mul.lo.u64 %rd16, %rd10, %rd9;
GPGPU-Sim PTX:  9 (potential) branch divergence @  PC=0x10b0 (_4.ptx:170) @%p8 bra $Lt_0_7426;
GPGPU-Sim PTX:    immediate post dominator      @  PC=0x10b8 (_4.ptx:172) add.u32 %r6, %r6, %r11;
GPGPU-Sim PTX: 10 (potential) branch divergence @  PC=0x10c8 (_4.ptx:174) @%p9 bra $Lt_0_6658;
GPGPU-Sim PTX:    immediate post dominator      @  PC=0x10d0 (_4.ptx:177) exit;
GPGPU-Sim PTX: ... end of reconvergence points for _Z17im2col_gpu_kernelIfEviPKT_iiiiiiiPS0_
GPGPU-Sim PTX: ... done pre-decoding instructions for '_Z17im2col_gpu_kernelIfEviPKT_iiiiiiiPS0_'.
GPGPU-Sim PTX: instruction assembly for function '_Z17im2col_gpu_kernelIdEviPKT_iiiiiiiPS0_'...   done.
GPGPU-Sim PTX: finding reconvergence points for '_Z17im2col_gpu_kernelIdEviPKT_iiiiiiiPS0_'...
GPGPU-Sim PTX: Finding dominators for '_Z17im2col_gpu_kernelIdEviPKT_iiiiiiiPS0_'...
GPGPU-Sim PTX: Finding immediate dominators for '_Z17im2col_gpu_kernelIdEviPKT_iiiiiiiPS0_'...
GPGPU-Sim PTX: Finding postdominators for '_Z17im2col_gpu_kernelIdEviPKT_iiiiiiiPS0_'...
GPGPU-Sim PTX: Finding immediate postdominators for '_Z17im2col_gpu_kernelIdEviPKT_iiiiiiiPS0_'...
GPGPU-Sim PTX: pre-decoding instructions for '_Z17im2col_gpu_kernelIdEviPKT_iiiiiiiPS0_'...
GPGPU-Sim PTX: reconvergence points for _Z17im2col_gpu_kernelIdEviPKT_iiiiiiiPS0_...
GPGPU-Sim PTX:  1 (potential) branch divergence @  PC=0x1118 (_4.ptx:208) @%p1 bra $Lt_1_6146;
GPGPU-Sim PTX:    immediate post dominator      @  PC=0x13b8 (_4.ptx:307) exit;
GPGPU-Sim PTX:  2 (potential) branch divergence @  PC=0x11c8 (_4.ptx:233) @!%p2 bra $Lt_1_6914;
GPGPU-Sim PTX:    immediate post dominator      @  PC=0x13a0 (_4.ptx:302) add.u32 %r6, %r6, %r11;
GPGPU-Sim PTX:  3 (potential) branch divergence @  PC=0x12c0 (_4.ptx:269) @!%p3 bra $Lt_1_10242;
GPGPU-Sim PTX:    immediate post dominator      @  PC=0x1348 (_4.ptx:290) st.global.f64 [%rd12+0], %fd1;
GPGPU-Sim PTX:  4 (potential) branch divergence @  PC=0x12e0 (_4.ptx:273) @%p4 bra $Lt_1_10242;
GPGPU-Sim PTX:    immediate post dominator      @  PC=0x1348 (_4.ptx:290) st.global.f64 [%rd12+0], %fd1;
GPGPU-Sim PTX:  5 (potential) branch divergence @  PC=0x12f0 (_4.ptx:275) @%p5 bra $Lt_1_10242;
GPGPU-Sim PTX:    immediate post dominator      @  PC=0x1348 (_4.ptx:290) st.global.f64 [%rd12+0], %fd1;
GPGPU-Sim PTX:  6 (potential) branch divergence @  PC=0x1300 (_4.ptx:277) @%p6 bra $Lt_1_10242;
GPGPU-Sim PTX:    immediate post dominator      @  PC=0x1348 (_4.ptx:290) st.global.f64 [%rd12+0], %fd1;
GPGPU-Sim PTX:  7 (potential) branch divergence @  PC=0x1338 (_4.ptx:285) bra.uni $L_1_4866;
GPGPU-Sim PTX:    immediate post dominator      @  PC=0x1348 (_4.ptx:290) st.global.f64 [%rd12+0], %fd1;
GPGPU-Sim PTX:  8 (potential) branch divergence @  PC=0x1368 (_4.ptx:294) @%p7 bra $Lt_1_8194;
GPGPU-Sim PTX:    immediate post dominator      @  PC=0x1370 (_4.ptx:295) mul.lo.u64 %rd16, %rd10, %rd9;
GPGPU-Sim PTX:  9 (potential) branch divergence @  PC=0x1398 (_4.ptx:300) @%p8 bra $Lt_1_7426;
GPGPU-Sim PTX:    immediate post dominator      @  PC=0x13a0 (_4.ptx:302) add.u32 %r6, %r6, %r11;
GPGPU-Sim PTX: 10 (potential) branch divergence @  PC=0x13b0 (_4.ptx:304) @%p9 bra $Lt_1_6658;
GPGPU-Sim PTX:    immediate post dominator      @  PC=0x13b8 (_4.ptx:307) exit;
GPGPU-Sim PTX: ... end of reconvergence points for _Z17im2col_gpu_kernelIdEviPKT_iiiiiiiPS0_
GPGPU-Sim PTX: ... done pre-decoding instructions for '_Z17im2col_gpu_kernelIdEviPKT_iiiiiiiPS0_'.
GPGPU-Sim PTX: finished parsing EMBEDDED .ptx file _4.ptx
Adding _cuobjdump_4.ptx with cubin handle 4
GPGPU-Sim PTX: extracting embedded .ptx to temporary file "_ptx_muliQp"
Running: cat _ptx_muliQp | sed 's/.version 1.5/.version 1.4/' | sed 's/, texmode_independent//' | sed 's/\(\.extern \.const\[1\] .b8 \w\+\)\[\]/\1\[1\]/' | sed 's/const\[.\]/const\[0\]/g' > _ptx2_NRXShZ
GPGPU-Sim PTX: generating ptxinfo using "$CUDA_INSTALL_PATH/bin/ptxas --gpu-name=sm_20 -v _ptx2_NRXShZ --output-file  /dev/null 2> _ptx_muliQpinfo"
GPGPU-Sim PTX: Kernel '_Z17im2col_gpu_kernelIdEviPKT_iiiiiiiPS0_' : regs=23, lmem=0, smem=0, cmem=88
GPGPU-Sim PTX: Kernel '_Z17im2col_gpu_kernelIfEviPKT_iiiiiiiPS0_' : regs=21, lmem=0, smem=0, cmem=88
GPGPU-Sim PTX: removing ptxinfo using "rm -f _ptx_muliQp _ptx2_NRXShZ _ptx_muliQpinfo"
GPGPU-Sim PTX: loading globals with explicit initializers... 
GPGPU-Sim PTX: finished loading globals (0 bytes total).
GPGPU-Sim PTX: loading constants with explicit initializers...  done.
GPGPU-Sim PTX: __cudaRegisterFunction _Z17im2col_gpu_kernelIfEviPKT_iiiiiiiPS0_ : hostFun 0x0x404bc0, fat_cubin_handle = 4
GPGPU-Sim PTX: __cudaRegisterFatBinary, fat_cubin_handle = 5, filename=/home/bing/cu_learn/im2col/src/pooling.cu
GPGPU-Sim PTX: __cudaRegisterFunction _Z14MaxPoolForwardIfEviPKT_iiiiiiiiPS0_Pi : hostFun 0x0x405b60, fat_cubin_handle = 5
GPGPU-Sim PTX: instruction assembly for function '_Z15MaxPoolBackwardIfEviPKT_PKiiiiiiiiiiiiPS0_'...   done.
GPGPU-Sim PTX: finding reconvergence points for '_Z15MaxPoolBackwardIfEviPKT_PKiiiiiiiiiiiiPS0_'...
GPGPU-Sim PTX: Finding dominators for '_Z15MaxPoolBackwardIfEviPKT_PKiiiiiiiiiiiiPS0_'...
GPGPU-Sim PTX: Finding immediate dominators for '_Z15MaxPoolBackwardIfEviPKT_PKiiiiiiiiiiiiPS0_'...
GPGPU-Sim PTX: Finding postdominators for '_Z15MaxPoolBackwardIfEviPKT_PKiiiiiiiiiiiiPS0_'...
GPGPU-Sim PTX: Finding immediate postdominators for '_Z15MaxPoolBackwardIfEviPKT_PKiiiiiiiiiiiiPS0_'...
GPGPU-Sim PTX: pre-decoding instructions for '_Z15MaxPoolBackwardIfEviPKT_PKiiiiiiiiiiiiPS0_'...
GPGPU-Sim PTX: reconvergence points for _Z15MaxPoolBackwardIfEviPKT_PKiiiiiiiiiiiiPS0_...
GPGPU-Sim PTX:  1 (potential) branch divergence @  PC=0x1400 (_5.ptx:83) @%p1 bra $Lt_0_5634;
GPGPU-Sim PTX:    immediate post dominator      @  PC=0x1708 (_5.ptx:201) exit;
GPGPU-Sim PTX:  2 (potential) branch divergence @  PC=0x14a8 (_5.ptx:106) @%p2 bra $Lt_0_6658;
GPGPU-Sim PTX:    immediate post dominator      @  PC=0x14d8 (_5.ptx:115) rem.s32 %r24, %r6, %r17;
GPGPU-Sim PTX:  3 (potential) branch divergence @  PC=0x14c8 (_5.ptx:111) bra.uni $Lt_0_6402;
GPGPU-Sim PTX:    immediate post dominator      @  PC=0x14d8 (_5.ptx:115) rem.s32 %r24, %r6, %r17;
GPGPU-Sim PTX:  4 (potential) branch divergence @  PC=0x14f0 (_5.ptx:118) @%p3 bra $Lt_0_7170;
GPGPU-Sim PTX:    immediate post dominator      @  PC=0x1528 (_5.ptx:129) mov.s32 %r30, %r23;
GPGPU-Sim PTX:  5 (potential) branch divergence @  PC=0x1518 (_5.ptx:124) bra.uni $Lt_0_6914;
GPGPU-Sim PTX:    immediate post dominator      @  PC=0x1528 (_5.ptx:129) mov.s32 %r30, %r23;
GPGPU-Sim PTX:  6 (potential) branch divergence @  PC=0x1550 (_5.ptx:134) @%p4 bra $Lt_0_10498;
GPGPU-Sim PTX:    immediate post dominator      @  PC=0x16e0 (_5.ptx:194) st.global.f32 [%rd5+0], %f1;
GPGPU-Sim PTX:  7 (potential) branch divergence @  PC=0x1610 (_5.ptx:160) @!%p5 bra $Lt_0_8194;
GPGPU-Sim PTX:    immediate post dominator      @  PC=0x16b8 (_5.ptx:186) add.s32 %r30, %r30, 1;
GPGPU-Sim PTX:  8 (potential) branch divergence @  PC=0x1678 (_5.ptx:175) @%p6 bra $Lt_0_8962;
GPGPU-Sim PTX:    immediate post dominator      @  PC=0x1698 (_5.ptx:181) add.s32 %r51, %r51, 1;
GPGPU-Sim PTX:  9 (potential) branch divergence @  PC=0x16b0 (_5.ptx:184) @%p7 bra $Lt_0_8706;
GPGPU-Sim PTX:    immediate post dominator      @  PC=0x16b8 (_5.ptx:186) add.s32 %r30, %r30, 1;
GPGPU-Sim PTX: 10 (potential) branch divergence @  PC=0x16c8 (_5.ptx:188) @%p8 bra $Lt_0_7938;
GPGPU-Sim PTX:    immediate post dominator      @  PC=0x16d0 (_5.ptx:189) bra.uni $Lt_0_7426;
GPGPU-Sim PTX: 11 (potential) branch divergence @  PC=0x16d0 (_5.ptx:189) bra.uni $Lt_0_7426;
GPGPU-Sim PTX:    immediate post dominator      @  PC=0x16e0 (_5.ptx:194) st.global.f32 [%rd5+0], %f1;
GPGPU-Sim PTX: 12 (potential) branch divergence @  PC=0x1700 (_5.ptx:198) @%p9 bra $Lt_0_6146;
GPGPU-Sim PTX:    immediate post dominator      @  PC=0x1708 (_5.ptx:201) exit;
GPGPU-Sim PTX: ... end of reconvergence points for _Z15MaxPoolBackwardIfEviPKT_PKiiiiiiiiiiiiPS0_
GPGPU-Sim PTX: ... done pre-decoding instructions for '_Z15MaxPoolBackwardIfEviPKT_PKiiiiiiiiiiiiPS0_'.
GPGPU-Sim PTX: instruction assembly for function '_Z14MaxPoolForwardIfEviPKT_iiiiiiiiPS0_Pi'...   done.
GPGPU-Sim PTX: finding reconvergence points for '_Z14MaxPoolForwardIfEviPKT_iiiiiiiiPS0_Pi'...
GPGPU-Sim PTX: Finding dominators for '_Z14MaxPoolForwardIfEviPKT_iiiiiiiiPS0_Pi'...
GPGPU-Sim PTX: Finding immediate dominators for '_Z14MaxPoolForwardIfEviPKT_iiiiiiiiPS0_Pi'...
GPGPU-Sim PTX: Finding postdominators for '_Z14MaxPoolForwardIfEviPKT_iiiiiiiiPS0_Pi'...
GPGPU-Sim PTX: Finding immediate postdominators for '_Z14MaxPoolForwardIfEviPKT_iiiiiiiiPS0_Pi'...
GPGPU-Sim PTX: pre-decoding instructions for '_Z14MaxPoolForwardIfEviPKT_iiiiiiiiPS0_Pi'...
GPGPU-Sim PTX: reconvergence points for _Z14MaxPoolForwardIfEviPKT_iiiiiiiiPS0_Pi...
GPGPU-Sim PTX:  1 (potential) branch divergence @  PC=0x1750 (_5.ptx:234) @%p1 bra $Lt_1_4098;
GPGPU-Sim PTX:    immediate post dominator      @  PC=0x19f0 (_5.ptx:335) exit;
GPGPU-Sim PTX:  2 (potential) branch divergence @  PC=0x1828 (_5.ptx:264) @%p2 bra $Lt_1_7938;
GPGPU-Sim PTX:    immediate post dominator      @  PC=0x19b8 (_5.ptx:325) st.global.f32 [%rd5+0], %f1;
GPGPU-Sim PTX:  3 (potential) branch divergence @  PC=0x18f8 (_5.ptx:292) @!%p3 bra $Lt_1_5634;
GPGPU-Sim PTX:    immediate post dominator      @  PC=0x1988 (_5.ptx:316) add.s32 %r22, %r22, 1;
GPGPU-Sim PTX:  4 (potential) branch divergence @  PC=0x1950 (_5.ptx:305) @!%p4 bra $Lt_1_6402;
GPGPU-Sim PTX:    immediate post dominator      @  PC=0x1968 (_5.ptx:311) add.s32 %r46, %r46, 1;
GPGPU-Sim PTX:  5 (potential) branch divergence @  PC=0x1980 (_5.ptx:314) @%p5 bra $Lt_1_6146;
GPGPU-Sim PTX:    immediate post dominator      @  PC=0x1988 (_5.ptx:316) add.s32 %r22, %r22, 1;
GPGPU-Sim PTX:  6 (potential) branch divergence @  PC=0x1998 (_5.ptx:318) @%p6 bra $Lt_1_5378;
GPGPU-Sim PTX:    immediate post dominator      @  PC=0x19a0 (_5.ptx:319) bra.uni $Lt_1_4866;
GPGPU-Sim PTX:  7 (potential) branch divergence @  PC=0x19a0 (_5.ptx:319) bra.uni $Lt_1_4866;
GPGPU-Sim PTX:    immediate post dominator      @  PC=0x19b8 (_5.ptx:325) st.global.f32 [%rd5+0], %f1;
GPGPU-Sim PTX:  8 (potential) branch divergence @  PC=0x19e8 (_5.ptx:332) @%p7 bra $Lt_1_4610;
GPGPU-Sim PTX:    immediate post dominator      @  PC=0x19f0 (_5.ptx:335) exit;
GPGPU-Sim PTX: ... end of reconvergence points for _Z14MaxPoolForwardIfEviPKT_iiiiiiiiPS0_Pi
GPGPU-Sim PTX: ... done pre-decoding instructions for '_Z14MaxPoolForwardIfEviPKT_iiiiiiiiPS0_Pi'.
GPGPU-Sim PTX: finished parsing EMBEDDED .ptx file _5.ptx
Adding _cuobjdump_5.ptx with cubin handle 5
GPGPU-Sim PTX: extracting embedded .ptx to temporary file "_ptx_l99s0y"
Running: cat _ptx_l99s0y | sed 's/.version 1.5/.version 1.4/' | sed 's/, texmode_independent//' | sed 's/\(\.extern \.const\[1\] .b8 \w\+\)\[\]/\1\[1\]/' | sed 's/const\[.\]/const\[0\]/g' > _ptx2_6j2wK8
GPGPU-Sim PTX: generating ptxinfo using "$CUDA_INSTALL_PATH/bin/ptxas --gpu-name=sm_20 -v _ptx2_6j2wK8 --output-file  /dev/null 2> _ptx_l99s0yinfo"
GPGPU-Sim PTX: Kernel '_Z14MaxPoolForwardIfEviPKT_iiiiiiiiPS0_Pi' : regs=22, lmem=0, smem=0, cmem=96
GPGPU-Sim PTX: Kernel '_Z15MaxPoolBackwardIfEviPKT_PKiiiiiiiiiiiiPS0_' : regs=23, lmem=0, smem=0, cmem=112
GPGPU-Sim PTX: removing ptxinfo using "rm -f _ptx_l99s0y _ptx2_6j2wK8 _ptx_l99s0yinfo"
GPGPU-Sim PTX: loading globals with explicit initializers... 
GPGPU-Sim PTX: finished loading globals (0 bytes total).
GPGPU-Sim PTX: loading constants with explicit initializers...  done.
GPGPU-Sim PTX: __cudaRegisterFunction _Z15MaxPoolBackwardIfEviPKT_PKiiiiiiiiiiiiPS0_ : hostFun 0x0x405b50, fat_cubin_handle = 5
GPGPU-Sim PTX: __cudaRegisterFatBinary, fat_cubin_handle = 6, filename=/home/bing/cu_learn/im2col/src/sigmoid.cu
GPGPU-Sim PTX: __cudaRegisterFunction _Z14SigmoidForwardIfEviPKT_PS0_ : hostFun 0x0x406590, fat_cubin_handle = 6
GPGPU-Sim PTX: instruction assembly for function '_Z12ReLUBackwardIfEviPKT_S2_PS0_'...   done.
GPGPU-Sim PTX: finding reconvergence points for '_Z12ReLUBackwardIfEviPKT_S2_PS0_'...
GPGPU-Sim PTX: Finding dominators for '_Z12ReLUBackwardIfEviPKT_S2_PS0_'...
GPGPU-Sim PTX: Finding immediate dominators for '_Z12ReLUBackwardIfEviPKT_S2_PS0_'...
GPGPU-Sim PTX: Finding postdominators for '_Z12ReLUBackwardIfEviPKT_S2_PS0_'...
GPGPU-Sim PTX: Finding immediate postdominators for '_Z12ReLUBackwardIfEviPKT_S2_PS0_'...
GPGPU-Sim PTX: pre-decoding instructions for '_Z12ReLUBackwardIfEviPKT_S2_PS0_'...
GPGPU-Sim PTX: reconvergence points for _Z12ReLUBackwardIfEviPKT_S2_PS0_...
GPGPU-Sim PTX:  1 (potential) branch divergence @  PC=0x1a38 (_6.ptx:72) @%p1 bra $Lt_0_2050;
GPGPU-Sim PTX:    immediate post dominator      @  PC=0x1b00 (_6.ptx:104) exit;
GPGPU-Sim PTX:  2 (potential) branch divergence @  PC=0x1a98 (_6.ptx:86) @!%p2 bra $Lt_0_3074;
GPGPU-Sim PTX:    immediate post dominator      @  PC=0x1ac8 (_6.ptx:95) add.u64 %rd9, %rd2, %rd4;
GPGPU-Sim PTX:  3 (potential) branch divergence @  PC=0x1ab8 (_6.ptx:91) bra.uni $Lt_0_2818;
GPGPU-Sim PTX:    immediate post dominator      @  PC=0x1ac8 (_6.ptx:95) add.u64 %rd9, %rd2, %rd4;
GPGPU-Sim PTX:  4 (potential) branch divergence @  PC=0x1af8 (_6.ptx:101) @%p3 bra $Lt_0_2562;
GPGPU-Sim PTX:    immediate post dominator      @  PC=0x1b00 (_6.ptx:104) exit;
GPGPU-Sim PTX: ... end of reconvergence points for _Z12ReLUBackwardIfEviPKT_S2_PS0_
GPGPU-Sim PTX: ... done pre-decoding instructions for '_Z12ReLUBackwardIfEviPKT_S2_PS0_'.
GPGPU-Sim PTX: instruction assembly for function '_Z11ReLUForwardIfEviPKT_PS0_'...   done.
GPGPU-Sim PTX: finding reconvergence points for '_Z11ReLUForwardIfEviPKT_PS0_'...
GPGPU-Sim PTX: Finding dominators for '_Z11ReLUForwardIfEviPKT_PS0_'...
GPGPU-Sim PTX: Finding immediate dominators for '_Z11ReLUForwardIfEviPKT_PS0_'...
GPGPU-Sim PTX: Finding postdominators for '_Z11ReLUForwardIfEviPKT_PS0_'...
GPGPU-Sim PTX: Finding immediate postdominators for '_Z11ReLUForwardIfEviPKT_PS0_'...
GPGPU-Sim PTX: pre-decoding instructions for '_Z11ReLUForwardIfEviPKT_PS0_'...
GPGPU-Sim PTX: reconvergence points for _Z11ReLUForwardIfEviPKT_PS0_...
GPGPU-Sim PTX:  1 (potential) branch divergence @  PC=0x1b48 (_6.ptx:128) @%p1 bra $Lt_1_1794;
GPGPU-Sim PTX:    immediate post dominator      @  PC=0x1be8 (_6.ptx:153) exit;
GPGPU-Sim PTX:  2 (potential) branch divergence @  PC=0x1be0 (_6.ptx:150) @%p2 bra $Lt_1_2306;
GPGPU-Sim PTX:    immediate post dominator      @  PC=0x1be8 (_6.ptx:153) exit;
GPGPU-Sim PTX: ... end of reconvergence points for _Z11ReLUForwardIfEviPKT_PS0_
GPGPU-Sim PTX: ... done pre-decoding instructions for '_Z11ReLUForwardIfEviPKT_PS0_'.
GPGPU-Sim PTX: instruction assembly for function '_Z14SigmoidForwardIfEviPKT_PS0_'...   done.
GPGPU-Sim PTX: finding reconvergence points for '_Z14SigmoidForwardIfEviPKT_PS0_'...
GPGPU-Sim PTX: Finding dominators for '_Z14SigmoidForwardIfEviPKT_PS0_'...
GPGPU-Sim PTX: Finding immediate dominators for '_Z14SigmoidForwardIfEviPKT_PS0_'...
GPGPU-Sim PTX: Finding postdominators for '_Z14SigmoidForwardIfEviPKT_PS0_'...
GPGPU-Sim PTX: Finding immediate postdominators for '_Z14SigmoidForwardIfEviPKT_PS0_'...
GPGPU-Sim PTX: pre-decoding instructions for '_Z14SigmoidForwardIfEviPKT_PS0_'...
GPGPU-Sim PTX: reconvergence points for _Z14SigmoidForwardIfEviPKT_PS0_...
GPGPU-Sim PTX:  1 (potential) branch divergence @  PC=0x1c30 (_6.ptx:178) @%p1 bra $Lt_2_4354;
GPGPU-Sim PTX:    immediate post dominator      @  PC=0x2040 (_6.ptx:341) exit;
GPGPU-Sim PTX:  2 (potential) branch divergence @  PC=0x1cc0 (_6.ptx:199) @!%p2 bra $Lt_2_5378;
GPGPU-Sim PTX:    immediate post dominator      @  PC=0x1ff0 (_6.ptx:329) mov.f64 %fd73, 0d3fe0000000000000;// 0.5
GPGPU-Sim PTX:  3 (potential) branch divergence @  PC=0x1df0 (_6.ptx:248) @%p3 bra $Lt_2_5890;
GPGPU-Sim PTX:    immediate post dominator      @  PC=0x1e88 (_6.ptx:275) mov.f64 %fd42, 0d3ff0000000000000;// 1
GPGPU-Sim PTX:  4 (potential) branch divergence @  PC=0x1e10 (_6.ptx:253) bra.uni $Lt_2_5634;
GPGPU-Sim PTX:    immediate post dominator      @  PC=0x1e88 (_6.ptx:275) mov.f64 %fd42, 0d3ff0000000000000;// 1
GPGPU-Sim PTX:  5 (potential) branch divergence @  PC=0x1e28 (_6.ptx:257) @%p4 bra $Lt_2_6402;
GPGPU-Sim PTX:    immediate post dominator      @  PC=0x1e50 (_6.ptx:266) mov.s32 %r18, 0;
GPGPU-Sim PTX:  6 (potential) branch divergence @  PC=0x1e40 (_6.ptx:261) bra.uni $Lt_2_6146;
GPGPU-Sim PTX:    immediate post dominator      @  PC=0x1e50 (_6.ptx:266) mov.s32 %r18, 0;
GPGPU-Sim PTX:  7 (potential) branch divergence @  PC=0x1f08 (_6.ptx:291) bra.uni $Lt_2_5122;
GPGPU-Sim PTX:    immediate post dominator      @  PC=0x1ff0 (_6.ptx:329) mov.f64 %fd73, 0d3fe0000000000000;// 0.5
GPGPU-Sim PTX:  8 (potential) branch divergence @  PC=0x2038 (_6.ptx:338) @%p6 bra $Lt_2_4866;
GPGPU-Sim PTX:    immediate post dominator      @  PC=0x2040 (_6.ptx:341) exit;
GPGPU-Sim PTX: ... end of reconvergence points for _Z14SigmoidForwardIfEviPKT_PS0_
GPGPU-Sim PTX: ... done pre-decoding instructions for '_Z14SigmoidForwardIfEviPKT_PS0_'.
GPGPU-Sim PTX: finished parsing EMBEDDED .ptx file _6.ptx
Adding _cuobjdump_6.ptx with cubin handle 6
GPGPU-Sim PTX: extracting embedded .ptx to temporary file "_ptx_XLEUOI"
Running: cat _ptx_XLEUOI | sed 's/.version 1.5/.version 1.4/' | sed 's/, texmode_independent//' | sed 's/\(\.extern \.const\[1\] .b8 \w\+\)\[\]/\1\[1\]/' | sed 's/const\[.\]/const\[0\]/g' > _ptx2_lD8kTi
GPGPU-Sim PTX: generating ptxinfo using "$CUDA_INSTALL_PATH/bin/ptxas --gpu-name=sm_20 -v _ptx2_lD8kTi --output-file  /dev/null 2> _ptx_XLEUOIinfo"
GPGPU-Sim PTX: Kernel '_Z14SigmoidForwardIfEviPKT_PS0_' : regs=26, lmem=0, smem=0, cmem=60
GPGPU-Sim PTX: Kernel '_Z11ReLUForwardIfEviPKT_PS0_' : regs=10, lmem=0, smem=0, cmem=56
GPGPU-Sim PTX: Kernel '_Z12ReLUBackwardIfEviPKT_S2_PS0_' : regs=9, lmem=0, smem=0, cmem=64
GPGPU-Sim PTX: removing ptxinfo using "rm -f _ptx_XLEUOI _ptx2_lD8kTi _ptx_XLEUOIinfo"
GPGPU-Sim PTX: loading globals with explicit initializers... 
GPGPU-Sim PTX: finished loading globals (0 bytes total).
GPGPU-Sim PTX: loading constants with explicit initializers...  done.
GPGPU-Sim PTX: __cudaRegisterFunction _Z11ReLUForwardIfEviPKT_PS0_ : hostFun 0x0x406510, fat_cubin_handle = 6
GPGPU-Sim PTX: __cudaRegisterFunction _Z12ReLUBackwardIfEviPKT_S2_PS0_ : hostFun 0x0x406480, fat_cubin_handle = 6

GPGPU-Sim PTX: cudaLaunch for 0x0x404bc0 (mode=performance simulation) on stream 0
GPGPU-Sim PTX: pushing kernel '_Z17im2col_gpu_kernelIfEviPKT_iiiiiiiPS0_' to stream 0, gridDim= (2,1,1) blockDim = (512,1,1) 
kernel '_Z17im2col_gpu_kernelIfEviPKT_iiiiiiiPS0_' transfer to GPU hardware scheduler
GPGPU-Sim uArch: Shader 1 bind to kernel 1 '_Z17im2col_gpu_kernelIfEviPKT_iiiiiiiPS0_'
GPGPU-Sim uArch: CTA/core = 2, limited by: regs
GPGPU-Sim uArch: core:  1, cta: 0 initialized @(1,0)
GPGPU-Sim uArch: Shader 2 bind to kernel 1 '_Z17im2col_gpu_kernelIfEviPKT_iiiiiiiPS0_'
GPGPU-Sim uArch: core:  2, cta: 0 initialized @(1,0)
GPGPU-Sim uArch: cycles simulated: 500  inst.: 2048 (ipc= 4.1) sim_rate=2048 (inst/sec) elapsed = 0:0:00:01 / Sat Jul 28 11:47:33 2018
GPGPU-Sim PTX: 100000 instructions simulated : ctaid=(0,0,0) tid=(191,0,0)
GPGPU-Sim PTX: 200000 instructions simulated : ctaid=(0,0,0) tid=(319,0,0)
GPGPU-Sim uArch: cycles simulated: 6000  inst.: 220960 (ipc=36.8) sim_rate=110480 (inst/sec) elapsed = 0:0:00:02 / Sat Jul 28 11:47:34 2018
GPGPU-Sim PTX: 300000 instructions simulated : ctaid=(0,0,0) tid=(191,0,0)
GPGPU-Sim uArch: Shader 2 finished CTA #0 (6883,0), 0 CTAs running
GPGPU-Sim uArch: Shader 2 empty (release kernel 1 '_Z17im2col_gpu_kernelIfEviPKT_iiiiiiiPS0_').
GPGPU-Sim uArch: Shader 1 finished CTA #0 (9159,0), 0 CTAs running
GPGPU-Sim uArch: Shader 1 empty (release kernel 1 '_Z17im2col_gpu_kernelIfEviPKT_iiiiiiiPS0_').
GPGPU-Sim uArch: GPU detected kernel '_Z17im2col_gpu_kernelIfEviPKT_iiiiiiiPS0_' finished on shader 1.
kernel_name = _Z17im2col_gpu_kernelIfEviPKT_iiiiiiiPS0_ 
kernel_launch_uid = 1 
gpu_sim_cycle = 9160
gpu_sim_insn = 314944
gpu_ipc =      34.3825
gpu_tot_sim_cycle = 9160
gpu_tot_sim_insn = 314944
gpu_tot_ipc =      34.3825
gpu_tot_issued_cta = 0
gpu_stall_dramfull = 0
gpu_stall_icnt2sh    = 1
gpu_total_sim_rate=157472

========= Core cache stats =========
L1I_cache:
	L1I_total_cache_accesses = 6712
	L1I_total_cache_misses = 166
	L1I_total_cache_miss_rate = 0.0247
	L1I_total_cache_pending_hits = 0
	L1I_total_cache_reservation_fails = 0
L1D_cache:
	L1D_cache_core[0]: Access = 0, Miss = 0, Miss_rate = -nan, Pending_hits = 0, Reservation_fails = 0
	L1D_cache_core[1]: Access = 1227, Miss = 423, Miss_rate = 0.345, Pending_hits = 13, Reservation_fails = 0
	L1D_cache_core[2]: Access = 150, Miss = 57, Miss_rate = 0.380, Pending_hits = 2, Reservation_fails = 0
	L1D_cache_core[3]: Access = 0, Miss = 0, Miss_rate = -nan, Pending_hits = 0, Reservation_fails = 0
	L1D_cache_core[4]: Access = 0, Miss = 0, Miss_rate = -nan, Pending_hits = 0, Reservation_fails = 0
	L1D_cache_core[5]: Access = 0, Miss = 0, Miss_rate = -nan, Pending_hits = 0, Reservation_fails = 0
	L1D_cache_core[6]: Access = 0, Miss = 0, Miss_rate = -nan, Pending_hits = 0, Reservation_fails = 0
	L1D_cache_core[7]: Access = 0, Miss = 0, Miss_rate = -nan, Pending_hits = 0, Reservation_fails = 0
	L1D_cache_core[8]: Access = 0, Miss = 0, Miss_rate = -nan, Pending_hits = 0, Reservation_fails = 0
	L1D_cache_core[9]: Access = 0, Miss = 0, Miss_rate = -nan, Pending_hits = 0, Reservation_fails = 0
	L1D_cache_core[10]: Access = 0, Miss = 0, Miss_rate = -nan, Pending_hits = 0, Reservation_fails = 0
	L1D_cache_core[11]: Access = 0, Miss = 0, Miss_rate = -nan, Pending_hits = 0, Reservation_fails = 0
	L1D_cache_core[12]: Access = 0, Miss = 0, Miss_rate = -nan, Pending_hits = 0, Reservation_fails = 0
	L1D_cache_core[13]: Access = 0, Miss = 0, Miss_rate = -nan, Pending_hits = 0, Reservation_fails = 0
	L1D_cache_core[14]: Access = 0, Miss = 0, Miss_rate = -nan, Pending_hits = 0, Reservation_fails = 0
	L1D_total_cache_accesses = 1377
	L1D_total_cache_misses = 480
	L1D_total_cache_miss_rate = 0.3486
	L1D_total_cache_pending_hits = 15
	L1D_total_cache_reservation_fails = 0
	L1D_cache_data_port_util = 0.055
	L1D_cache_fill_port_util = 0.002
L1C_cache:
	L1C_total_cache_accesses = 194
	L1C_total_cache_misses = 32
	L1C_total_cache_miss_rate = 0.1649
	L1C_total_cache_pending_hits = 0
	L1C_total_cache_reservation_fails = 0
L1T_cache:
	L1T_total_cache_accesses = 0
	L1T_total_cache_misses = 0
	L1T_total_cache_pending_hits = 0
	L1T_total_cache_reservation_fails = 0

Total_core_cache_stats:
	Total_core_cache_stats_breakdown[GLOBAL_ACC_R][HIT] = 882
	Total_core_cache_stats_breakdown[GLOBAL_ACC_R][HIT_RESERVED] = 15
	Total_core_cache_stats_breakdown[GLOBAL_ACC_R][MISS] = 30
	Total_core_cache_stats_breakdown[CONST_ACC_R][HIT] = 162
	Total_core_cache_stats_breakdown[CONST_ACC_R][MISS] = 32
	Total_core_cache_stats_breakdown[GLOBAL_ACC_W][MISS] = 450
	Total_core_cache_stats_breakdown[INST_ACC_R][HIT] = 6546
	Total_core_cache_stats_breakdown[INST_ACC_R][MISS] = 166
Shader 0 warp_id issue ditsribution:
warp_id:

distro:

gpgpu_n_tot_thrd_icount = 377728
gpgpu_n_tot_w_icount = 11804
gpgpu_n_stall_shd_mem = 477
gpgpu_n_mem_read_local = 0
gpgpu_n_mem_write_local = 0
gpgpu_n_mem_read_global = 30
gpgpu_n_mem_write_global = 450
gpgpu_n_mem_texture = 0
gpgpu_n_mem_const = 2
gpgpu_n_load_insn  = 14400
gpgpu_n_store_insn = 14400
gpgpu_n_shmem_insn = 0
gpgpu_n_tex_insn = 0
gpgpu_n_const_mem_insn = 0
gpgpu_n_param_mem_insn = 6208
gpgpu_n_shmem_bkconflict = 0
gpgpu_n_cache_bkconflict = 0
gpgpu_n_intrawarp_mshr_merge = 0
gpgpu_n_cmem_portconflict = 0
gpgpu_stall_shd_mem[c_mem][bk_conf] = 0
gpgpu_stall_shd_mem[c_mem][mshr_rc] = 0
gpgpu_stall_shd_mem[c_mem][icnt_rc] = 0
gpgpu_stall_shd_mem[c_mem][data_port_stall] = 0
gpgpu_stall_shd_mem[t_mem][mshr_rc] = 0
gpgpu_stall_shd_mem[t_mem][icnt_rc] = 0
gpgpu_stall_shd_mem[t_mem][data_port_stall] = 0
gpgpu_stall_shd_mem[s_mem][bk_conf] = 0
gpgpu_stall_shd_mem[gl_mem][bk_conf] = 0
gpgpu_stall_shd_mem[gl_mem][coal_stall] = 477
gpgpu_stall_shd_mem[gl_mem][data_port_stall] = 0
gpgpu_stall_shd_mem[g_mem_ld][mshr_rc] = 0
gpgpu_stall_shd_mem[g_mem_ld][icnt_rc] = 0
gpgpu_stall_shd_mem[g_mem_ld][wb_icnt_rc] = 0
gpgpu_stall_shd_mem[g_mem_ld][wb_rsrv_fail] = 0
gpgpu_stall_shd_mem[g_mem_st][mshr_rc] = 0
gpgpu_stall_shd_mem[g_mem_st][icnt_rc] = 0
gpgpu_stall_shd_mem[g_mem_st][wb_icnt_rc] = 0
gpgpu_stall_shd_mem[g_mem_st][wb_rsrv_fail] = 0
gpgpu_stall_shd_mem[l_mem_ld][mshr_rc] = 0
gpgpu_stall_shd_mem[l_mem_ld][icnt_rc] = 0
gpgpu_stall_shd_mem[l_mem_ld][wb_icnt_rc] = 0
gpgpu_stall_shd_mem[l_mem_ld][wb_rsrv_fail] = 0
gpgpu_stall_shd_mem[l_mem_st][mshr_rc] = 0
gpgpu_stall_shd_mem[l_mem_st][icnt_rc] = 0
gpgpu_stall_shd_mem[l_mem_ld][wb_icnt_rc] = 0
gpgpu_stall_shd_mem[l_mem_ld][wb_rsrv_fail] = 0
gpu_reg_bank_conflict_stalls = 0
Warp Occupancy Distribution:
Stall:385	W0_Idle:8694	W0_Scoreboard:11231	W1:0	W2:0	W3:0	W4:0	W5:0	W6:0	W7:0	W8:0	W9:0	W10:0	W11:0	W12:0	W13:0	W14:0	W15:0	W16:0	W17:0	W18:0	W19:0	W20:0	W21:0	W22:0	W23:0	W24:0	W25:0	W26:0	W27:0	W28:0	W29:0	W30:0	W31:0	W32:11804
traffic_breakdown_coretomem[CONST_ACC_R] = 16 {8:2,}
traffic_breakdown_coretomem[GLOBAL_ACC_R] = 240 {8:30,}
traffic_breakdown_coretomem[GLOBAL_ACC_W] = 61200 {136:450,}
traffic_breakdown_coretomem[INST_ACC_R] = 112 {8:14,}
traffic_breakdown_memtocore[CONST_ACC_R] = 144 {72:2,}
traffic_breakdown_memtocore[GLOBAL_ACC_R] = 4080 {136:30,}
traffic_breakdown_memtocore[GLOBAL_ACC_W] = 3600 {8:450,}
traffic_breakdown_memtocore[INST_ACC_R] = 1904 {136:14,}
maxmrqlatency = 35 
maxdqlatency = 0 
maxmflatency = 345 
averagemflatency = 258 
max_icnt2mem_latency = 35 
max_icnt2sh_latency = 9159 
mrq_lat_table:420 	345 	36 	80 	49 	3 	0 	0 	0 	0 	0 	0 	0 	0 	0 	0 	0 	0 	0 	0 	0 	0 	0 	0 	0 	0 	0 	0 	0 	0 	0 	0 	
dq_lat_table:0 	0 	0 	0 	0 	0 	0 	0 	0 	0 	0 	0 	0 	0 	0 	0 	0 	0 	0 	0 	0 	0 	0 	0 	0 	0 	0 	0 	0 	0 	0 	0 	
mf_lat_table:0 	0 	0 	0 	0 	0 	0 	278 	204 	0 	0 	0 	0 	0 	0 	0 	0 	0 	0 	0 	0 	0 	0 	0 	0 	0 	0 	0 	0 	0 	0 	0 	
icnt2mem_lat_table:0 	0 	0 	350 	145 	1 	0 	0 	0 	0 	0 	0 	0 	0 	0 	0 	0 	0 	0 	0 	0 	0 	0 	0 	
icnt2sh_lat_table:0 	0 	0 	12 	9 	3 	8 	0 	0 	0 	0 	102 	333 	15 	0 	0 	0 	0 	0 	0 	0 	0 	0 	0 	
mf_lat_pw_table:0 	0 	0 	0 	0 	0 	0 	6 	8 	0 	0 	0 	0 	0 	0 	0 	0 	0 	0 	0 	0 	0 	0 	0 	0 	0 	0 	0 	0 	0 	0 	0 	
maximum concurrent accesses to same row:
dram[0]:         0         0         0         0         0         0         0         0         0         0         0         0         0         0         0         0 
dram[1]:         0         0         0         0         0         0         0         0         0         0         0         0         0         0         0         0 
dram[2]:         0         0         0         0         0         0         0         0         0         0         0         0         0         0         0         0 
dram[3]:         0         0         0         0         0         0         0         0         0         0         0         0         0         0         0         0 
dram[4]:         0         0         0         0         0         0         0         0         0         0         0         0         0         0         0         0 
dram[5]:         0         0         0         0         0         0         0         0         0         0         0         0         0         0         0         0 
maximum service time to same row:
dram[0]:         0         0         0         0      3000      3244      2660      2635         0         0         0         0         0         0         0         0 
dram[1]:       232         0         0         0      2951      3232      2666      2631         0         0         0         0         0         0         0         0 
dram[2]:       516         0         0         0      3028      2944      2613      2643         0         0         0         0         0         0         0         0 
dram[3]:      1622         0         0         0      2969      2963      2612      2641         0         0         0         0         0         0         0         0 
dram[4]:      1104         0         0         0      2897      2976      3856      2654         0         0         0         0         0         0         0         0 
dram[5]:         0         0         0         0      3235      2932      2637      2657         0         0         0         0         0         0         0         0 
average row accesses per activate:
dram[0]:       inf      -nan      -nan      -nan 20.000000 20.000000 58.000000 54.000000      -nan      -nan      -nan      -nan      -nan      -nan      -nan      -nan 
dram[1]:  1.000000      -nan      -nan      -nan 20.000000 20.000000 58.000000 54.000000      -nan      -nan      -nan      -nan      -nan      -nan      -nan      -nan 
dram[2]:  2.000000      -nan      -nan      -nan 20.000000 24.000000 58.000000 54.000000      -nan      -nan      -nan      -nan      -nan      -nan      -nan      -nan 
dram[3]:  2.000000      -nan      -nan      -nan 20.000000 24.000000 58.000000 54.000000      -nan      -nan      -nan      -nan      -nan      -nan      -nan      -nan 
dram[4]:  2.000000      -nan      -nan      -nan 20.000000 24.000000 58.000000 54.000000      -nan      -nan      -nan      -nan      -nan      -nan      -nan      -nan 
dram[5]:      -nan      -nan      -nan      -nan 20.000000 24.000000 55.000000 54.000000      -nan      -nan      -nan      -nan      -nan      -nan      -nan      -nan 
average row locality = 933/28 = 33.321430
number of total memory accesses made:
dram[0]:         0         0         0         0         0         0         0         0         0         0         0         0         0         0         0         0 
dram[1]:         0         0         0         0         0         0         0         0         0         0         0         0         0         0         0         0 
dram[2]:         0         0         0         0         0         0         0         0         0         0         0         0         0         0         0         0 
dram[3]:         0         0         0         0         0         0         0         0         0         0         0         0         0         0         0         0 
dram[4]:         0         0         0         0         0         0         0         0         0         0         0         0         0         0         0         0 
dram[5]:         0         0         0         0         0         0         0         0         0         0         0         0         0         0         0         0 
total accesses: 0
min_bank_accesses = 0!
min_chip_accesses = 0!
number of total read accesses:
dram[0]:         1         0         0         0        10        10        30        28         0         0         0         0         0         0         0         0 
dram[1]:         1         0         0         0        10        10        30        28         0         0         0         0         0         0         0         0 
dram[2]:         2         0         0         0        10        12        30        28         0         0         0         0         0         0         0         0 
dram[3]:         2         0         0         0        10        12        30        28         0         0         0         0         0         0         0         0 
dram[4]:         2         0         0         0        10        12        30        28         0         0         0         0         0         0         0         0 
dram[5]:         0         0         0         0        10        12        29        28         0         0         0         0         0         0         0         0 
total reads: 483
min_bank_accesses = 0!
chip skew: 82/79 = 1.04
number of total write accesses:
dram[0]:         0         0         0         0        10        10        28        26         0         0         0         0         0         0         0         0 
dram[1]:         0         0         0         0        10        10        28        26         0         0         0         0         0         0         0         0 
dram[2]:         0         0         0         0        10        12        28        26         0         0         0         0         0         0         0         0 
dram[3]:         0         0         0         0        10        12        28        26         0         0         0         0         0         0         0         0 
dram[4]:         0         0         0         0        10        12        28        26         0         0         0         0         0         0         0         0 
dram[5]:         0         0         0         0        10        12        26        26         0         0         0         0         0         0         0         0 
total reads: 450
min_bank_accesses = 0!
chip skew: 76/74 = 1.03
average mf latency per bank:
dram[0]:        530    none      none      none         129       131       133       133    none      none      none      none      none      none      none      none  
dram[1]:          0    none      none      none         132       133       133       134    none      none      none      none      none      none      none      none  
dram[2]:          0    none      none      none         131       128       139       134    none      none      none      none      none      none      none      none  
dram[3]:          0    none      none      none         130       130       136       133    none      none      none      none      none      none      none      none  
dram[4]:          0    none      none      none         130       130       134       134    none      none      none      none      none      none      none      none  
dram[5]:     none      none      none      none         128       129       138       135    none      none      none      none      none      none      none      none  
maximum mf latency per bank:
dram[0]:        266         0         0         0       285       278       339       317         0         0         0         0         0         0         0         0
dram[1]:          0         0         0         0       301       295       341       332         0         0         0         0         0         0         0         0
dram[2]:          0         0         0         0       290       265       277       324         0         0         0         0         0         0         0         0
dram[3]:          0         0         0         0       273       277       268       332         0         0         0         0         0         0         0         0
dram[4]:          0         0         0         0       273       274       267       327         0         0         0         0         0         0         0         0
dram[5]:          0         0         0         0       264       271       345       332         0         0         0         0         0         0         0         0

Number of Memory Banks Accessed per Memory Operation per Warp (from 0):
0	0	0	0	0	0	0	0	0	0	0	0	0	0	0	0	0	0	0	0	0	0	0	0	0	0	0	0	0	0	0	0	0	0	0	0	0	0	0	0	0	0	0	0	0	0	0	0	0	0	0	0	0	0	0	0	0	0	0	0	0	0	0	0	0	0	0	0	0	0	0	0	0	0	0	0	0	0	0	0	0	0	0	0	0	0	0	0	0	0	0	0	0	0	0	0	
Average # of Memory Banks Accessed per Memory Operation per Warp=-nan

position of mrq chosen
0	0	0	0	0	0	0	0	0	0	0	0	0	0	0	0	

average position of mrq chosen = -nan
Memory Partition 0: 
Cache L2_bank_000:
MSHR contents

Cache L2_bank_001:
MSHR contents

In Dram Latency Queue (total = 0): 
DRAM[0]: 16 bks, busW=4 BL=8 CL=12, tRRD=2 tCCD=6, tRCD=12 tRAS=28 tRP=12 tRC=40
n_cmd=12090 n_nop=11779 n_act=5 n_pre=0 n_req=153 n_rd=158 n_write=148 bw_util=0.05062
n_activity=2231 dram_eff=0.2743
bk0: 2a 12074i bk1: 0a 12091i bk2: 0a 12092i bk3: 0a 12093i bk4: 20a 11883i bk5: 20a 11871i bk6: 60a 11511i bk7: 56a 11526i bk8: 0a 12086i bk9: 0a 12088i bk10: 0a 12089i bk11: 0a 12089i bk12: 0a 12089i bk13: 0a 12089i bk14: 0a 12090i bk15: 0a 12090i 
dram_util_bins: 0 0 0 0 0 0 0 0 0 0
dram_eff_bins: 0 0 0 0 0 0 0 0 0 0
mrqq: max=3 avg=0.0453267
Memory Partition 1: 
Cache L2_bank_002:
MSHR contents

Cache L2_bank_003:
MSHR contents

In Dram Latency Queue (total = 0): 
DRAM[1]: 16 bks, busW=4 BL=8 CL=12, tRRD=2 tCCD=6, tRCD=12 tRAS=28 tRP=12 tRC=40
n_cmd=12090 n_nop=11779 n_act=5 n_pre=0 n_req=153 n_rd=158 n_write=148 bw_util=0.05062
n_activity=2188 dram_eff=0.2797
bk0: 2a 12075i bk1: 0a 12092i bk2: 0a 12093i bk3: 0a 12093i bk4: 20a 11862i bk5: 20a 11860i bk6: 60a 11472i bk7: 56a 11487i bk8: 0a 12086i bk9: 0a 12087i bk10: 0a 12088i bk11: 0a 12088i bk12: 0a 12088i bk13: 0a 12089i bk14: 0a 12090i bk15: 0a 12091i 
dram_util_bins: 0 0 0 0 0 0 0 0 0 0
dram_eff_bins: 0 0 0 0 0 0 0 0 0 0
mrqq: max=4 avg=0.0671629
Memory Partition 2: 
Cache L2_bank_004:
MSHR contents

Cache L2_bank_005:
MSHR contents

In Dram Latency Queue (total = 0): 
DRAM[2]: 16 bks, busW=4 BL=8 CL=12, tRRD=2 tCCD=6, tRCD=12 tRAS=28 tRP=12 tRC=40
n_cmd=12090 n_nop=11769 n_act=5 n_pre=0 n_req=158 n_rd=164 n_write=152 bw_util=0.05227
n_activity=2251 dram_eff=0.2808
bk0: 4a 12071i bk1: 0a 12091i bk2: 0a 12092i bk3: 0a 12093i bk4: 20a 11893i bk5: 24a 11845i bk6: 60a 11465i bk7: 56a 11496i bk8: 0a 12086i bk9: 0a 12087i bk10: 0a 12089i bk11: 0a 12090i bk12: 0a 12090i bk13: 0a 12090i bk14: 0a 12090i bk15: 0a 12090i 
dram_util_bins: 0 0 0 0 0 0 0 0 0 0
dram_eff_bins: 0 0 0 0 0 0 0 0 0 0
mrqq: max=2 avg=0.0403639
Memory Partition 3: 
Cache L2_bank_006:
MSHR contents
MSHR: tag=0x8000df80, atomic=0 1 entries : 0x7f8a786ca2e0 :  mf: uid=  8733, sid01:w15, part=3, addr=0x8000df80, load , size=128, unknown  status = IN_PARTITION_DRAM (9157), 

Cache L2_bank_007:
MSHR contents

In Dram Latency Queue (total = 0): 
DRAM[3]: 16 bks, busW=4 BL=8 CL=12, tRRD=2 tCCD=6, tRCD=12 tRAS=28 tRP=12 tRC=40
n_cmd=12090 n_nop=11769 n_act=5 n_pre=0 n_req=158 n_rd=164 n_write=152 bw_util=0.05227
n_activity=2240 dram_eff=0.2821
bk0: 4a 12070i bk1: 0a 12090i bk2: 0a 12091i bk3: 0a 12093i bk4: 20a 11861i bk5: 24a 11803i bk6: 60a 11507i bk7: 56a 11522i bk8: 0a 12088i bk9: 0a 12088i bk10: 0a 12089i bk11: 0a 12090i bk12: 0a 12090i bk13: 0a 12090i bk14: 0a 12090i bk15: 0a 12090i 
dram_util_bins: 0 0 0 0 0 0 0 0 0 0
dram_eff_bins: 0 0 0 0 0 0 0 0 0 0
mrqq: max=2 avg=0.0387924
Memory Partition 4: 
Cache L2_bank_008:
MSHR contents

Cache L2_bank_009:
MSHR contents

In Dram Latency Queue (total = 0): 
DRAM[4]: 16 bks, busW=4 BL=8 CL=12, tRRD=2 tCCD=6, tRCD=12 tRAS=28 tRP=12 tRC=40
n_cmd=12090 n_nop=11769 n_act=5 n_pre=0 n_req=158 n_rd=164 n_write=152 bw_util=0.05227
n_activity=2276 dram_eff=0.2777
bk0: 4a 12071i bk1: 0a 12091i bk2: 0a 12091i bk3: 0a 12093i bk4: 20a 11868i bk5: 24a 11799i bk6: 60a 11498i bk7: 56a 11492i bk8: 0a 12086i bk9: 0a 12087i bk10: 0a 12089i bk11: 0a 12089i bk12: 0a 12089i bk13: 0a 12090i bk14: 0a 12090i bk15: 0a 12090i 
dram_util_bins: 0 0 0 0 0 0 0 0 0 0
dram_eff_bins: 0 0 0 0 0 0 0 0 0 0
mrqq: max=3 avg=0.0549214
Memory Partition 5: 
Cache L2_bank_010:
MSHR contents

Cache L2_bank_011:
MSHR contents

In Dram Latency Queue (total = 0): 
DRAM[5]: 16 bks, busW=4 BL=8 CL=12, tRRD=2 tCCD=6, tRCD=12 tRAS=28 tRP=12 tRC=40
n_cmd=12090 n_nop=11780 n_act=4 n_pre=0 n_req=153 n_rd=158 n_write=148 bw_util=0.05062
n_activity=2199 dram_eff=0.2783
bk0: 0a 12091i bk1: 0a 12092i bk2: 0a 12093i bk3: 0a 12093i bk4: 20a 11905i bk5: 24a 11840i bk6: 58a 11502i bk7: 56a 11507i bk8: 0a 12086i bk9: 0a 12087i bk10: 0a 12089i bk11: 0a 12089i bk12: 0a 12089i bk13: 0a 12090i bk14: 0a 12090i bk15: 0a 12090i 
dram_util_bins: 0 0 0 0 0 0 0 0 0 0
dram_eff_bins: 0 0 0 0 0 0 0 0 0 0
mrqq: max=3 avg=0.0474773

========= L2 cache stats =========
L2_cache_bank[0]: Access = 42, Miss = 41, Miss_rate = 0.976, Pending_hits = 1, Reservation_fails = 0
L2_cache_bank[1]: Access = 38, Miss = 38, Miss_rate = 1.000, Pending_hits = 0, Reservation_fails = 0
L2_cache_bank[2]: Access = 42, Miss = 41, Miss_rate = 0.976, Pending_hits = 1, Reservation_fails = 0
L2_cache_bank[3]: Access = 38, Miss = 38, Miss_rate = 1.000, Pending_hits = 0, Reservation_fails = 0
L2_cache_bank[4]: Access = 46, Miss = 42, Miss_rate = 0.913, Pending_hits = 3, Reservation_fails = 0
L2_cache_bank[5]: Access = 40, Miss = 40, Miss_rate = 1.000, Pending_hits = 0, Reservation_fails = 0
L2_cache_bank[6]: Access = 46, Miss = 42, Miss_rate = 0.913, Pending_hits = 2, Reservation_fails = 0
L2_cache_bank[7]: Access = 40, Miss = 40, Miss_rate = 1.000, Pending_hits = 0, Reservation_fails = 0
L2_cache_bank[8]: Access = 45, Miss = 42, Miss_rate = 0.933, Pending_hits = 1, Reservation_fails = 0
L2_cache_bank[9]: Access = 40, Miss = 40, Miss_rate = 1.000, Pending_hits = 0, Reservation_fails = 0
L2_cache_bank[10]: Access = 39, Miss = 39, Miss_rate = 1.000, Pending_hits = 0, Reservation_fails = 0
L2_cache_bank[11]: Access = 40, Miss = 40, Miss_rate = 1.000, Pending_hits = 0, Reservation_fails = 0
L2_total_cache_accesses = 496
L2_total_cache_misses = 483
L2_total_cache_miss_rate = 0.9738
L2_total_cache_pending_hits = 8
L2_total_cache_reservation_fails = 0
L2_total_cache_breakdown:
	L2_cache_stats_breakdown[GLOBAL_ACC_R][HIT] = 4
	L2_cache_stats_breakdown[GLOBAL_ACC_R][HIT_RESERVED] = 1
	L2_cache_stats_breakdown[GLOBAL_ACC_R][MISS] = 25
	L2_cache_stats_breakdown[CONST_ACC_R][HIT_RESERVED] = 1
	L2_cache_stats_breakdown[CONST_ACC_R][MISS] = 1
	L2_cache_stats_breakdown[GLOBAL_ACC_W][MISS] = 450
	L2_cache_stats_breakdown[INST_ACC_R][HIT] = 1
	L2_cache_stats_breakdown[INST_ACC_R][HIT_RESERVED] = 6
	L2_cache_stats_breakdown[INST_ACC_R][MISS] = 7
L2_cache_data_port_util = 0.000
L2_cache_fill_port_util = 0.018

icnt_total_pkts_mem_to_simt=676
icnt_total_pkts_simt_to_mem=2296
LD_mem_lat_dist  0 0 0 0 0 0 0 0 0 0 0 0 0 0 0 0 0 0 0 0 0 0 0 0 0 0 0
ST_mem_lat_dist  0 0 0 0 0 0 0 0 0 0 0 0 0 0 0 0 0 0 0 0 0 0 0 0 0 0 0
----------------------------Interconnect-DETAILS--------------------------------
Class 0:
Packet latency average = 9.71573
	minimum = 6
	maximum = 88
Network latency average = 9.1744
	minimum = 6
	maximum = 88
Slowest packet = 63
Flit latency average = 7.80518
	minimum = 6
	maximum = 84
Slowest flit = 163
Fragmentation average = 0
	minimum = 0
	maximum = 0
Injected packet rate average = 0.004011
	minimum = 0 (at node 0)
	maximum = 0.0470524 (at node 1)
Accepted packet rate average = 0.004011
	minimum = 0 (at node 0)
	maximum = 0.0470524 (at node 1)
Injected flit rate average = 0.0120168
	minimum = 0 (at node 0)
	maximum = 0.221725 (at node 1)
Accepted flit rate average= 0.0120168
	minimum = 0 (at node 0)
	maximum = 0.0603712 (at node 1)
Injected packet length average = 2.99597
Accepted packet length average = 2.99597
Total in-flight flits = 0 (0 measured)
====== Overall Traffic Statistics ======
====== Traffic class 0 ======
Packet latency average = 9.71573 (1 samples)
	minimum = 6 (1 samples)
	maximum = 88 (1 samples)
Network latency average = 9.1744 (1 samples)
	minimum = 6 (1 samples)
	maximum = 88 (1 samples)
Flit latency average = 7.80518 (1 samples)
	minimum = 6 (1 samples)
	maximum = 84 (1 samples)
Fragmentation average = 0 (1 samples)
	minimum = 0 (1 samples)
	maximum = 0 (1 samples)
Injected packet rate average = 0.004011 (1 samples)
	minimum = 0 (1 samples)
	maximum = 0.0470524 (1 samples)
Accepted packet rate average = 0.004011 (1 samples)
	minimum = 0 (1 samples)
	maximum = 0.0470524 (1 samples)
Injected flit rate average = 0.0120168 (1 samples)
	minimum = 0 (1 samples)
	maximum = 0.221725 (1 samples)
Accepted flit rate average = 0.0120168 (1 samples)
	minimum = 0 (1 samples)
	maximum = 0.0603712 (1 samples)
Injected packet size average = 2.99597 (1 samples)
Accepted packet size average = 2.99597 (1 samples)
Hops average = 1 (1 samples)
----------------------------END-of-Interconnect-DETAILS-------------------------


gpgpu_simulation_time = 0 days, 0 hrs, 0 min, 2 sec (2 sec)
[...]
gpgpu_stall_shd_mem[l_mem_ld][wb_icnt_rc] = 0
gpgpu_stall_shd_mem[l_mem_ld][wb_rsrv_fail] = 0
gpu_reg_bank_conflict_stalls = 0
Warp Occupancy Distribution:
Stall:1711652	W0_Idle:453637	W0_Scoreboard:3562717	W1:24	W2:48	W3:58	W4:96	W5:76	W6:84	W7:52	W8:84482	W9:40	W10:38	W11:44	W12:24	W13:10	W14:8	W15:12	W16:38162	W17:6	W18:0	W19:0	W20:19	W21:0	W22:0	W23:0	W24:0	W25:0	W26:0	W27:0	W28:0	W29:0	W30:0	W31:0	W32:593107
traffic_breakdown_coretomem[CONST_ACC_R] = 120 {8:15,}
traffic_breakdown_coretomem[GLOBAL_ACC_R] = 277568 {8:34696,}
traffic_breakdown_coretomem[GLOBAL_ACC_W] = 19780720 {40:163110,72:74016,136:58288,}
traffic_breakdown_coretomem[INST_ACC_R] = 1424 {8:178,}
traffic_breakdown_memtocore[CONST_ACC_R] = 1080 {72:15,}
traffic_breakdown_memtocore[GLOBAL_ACC_R] = 4718656 {136:34696,}
traffic_breakdown_memtocore[GLOBAL_ACC_W] = 2363312 {8:295414,}
traffic_breakdown_memtocore[INST_ACC_R] = 24208 {136:178,}
maxmrqlatency = 99 
maxdqlatency = 0 
maxmflatency = 744 
averagemflatency = 201 
max_icnt2mem_latency = 555 
max_icnt2sh_latency = 532334 
mrq_lat_table:5742 	1245 	311 	497 	504 	180 	18 	0 	0 	0 	0 	0 	0 	0 	0 	0 	0 	0 	0 	0 	0 	0 	0 	0 	0 	0 	0 	0 	0 	0 	0 	0 	
dq_lat_table:0 	0 	0 	0 	0 	0 	0 	0 	0 	0 	0 	0 	0 	0 	0 	0 	0 	0 	0 	0 	0 	0 	0 	0 	0 	0 	0 	0 	0 	0 	0 	0 	
mf_lat_table:0 	0 	0 	0 	0 	0 	0 	304924 	24791 	410 	0 	0 	0 	0 	0 	0 	0 	0 	0 	0 	0 	0 	0 	0 	0 	0 	0 	0 	0 	0 	0 	0 	
icnt2mem_lat_table:0 	0 	0 	20267 	39394 	104461 	158649 	7400 	131 	1 	0 	0 	0 	0 	0 	0 	0 	0 	0 	0 	0 	0 	0 	0 	
icnt2sh_lat_table:0 	0 	0 	13618 	17651 	3308 	134 	0 	0 	0 	0 	102 	333 	6426 	22948 	28584 	105150 	130678 	1130 	63 	0 	0 	0 	0 	
mf_lat_pw_table:0 	0 	0 	0 	0 	0 	0 	1013 	41 	0 	0 	0 	0 	0 	0 	0 	0 	0 	0 	0 	0 	0 	0 	0 	0 	0 	0 	0 	0 	0 	0 	0 	
maximum concurrent accesses to same row:
dram[0]:        56        58        64        64        64        64        58        54         4         4        32        32        32        32        40        38 
dram[1]:        56        58        64        64        64        64        58        54         3         4        32        32        32        32        40        36 
dram[2]:        56        58        64        64        64        64        58        54         4         4        32        32        32        32        40        40 
dram[3]:        56        58        64        64        64        64        58        54         4         4        32        32        32        32        40        40 
dram[4]:        56        58        64        64        64        64        58        54         4         4        32        32        32        32        40        40 
dram[5]:        58        58        64        64        64        64        55        54         4         4        32        32        32        32        38        40 
maximum service time to same row:
dram[0]:     64328     64418     59113     65266    118663    121529     59981     66108     59019     64261     58989     58978     64280     60068     65246     65323 
dram[1]:     60072     66150     65317     59130    118919    121965     64343     60029     59897     59039     58092     39624     64311     65364     59139     65231 
dram[2]:     65185     59164     64319     60068    119743    122403     64299     59978     65210     65250     58048     45841     59119     66136     66272     64297 
dram[3]:     64289     60072     65260     65316    120119    122747     59085     66129     59040     64287     58991     65191     64414     64310     65231     59139 
dram[4]:     59160     66133     59113     64318    120608    123073     59978     65158     59973     64262     44952     58066     65230     60067     65252     65324 
dram[5]:     60072     65203     65316     64311    121011    123389     64344     60029     65237     59041     59100     45846     59158     65180     59140     64283 
average row accesses per activate:
dram[0]: 14.571428 14.428572 17.500000 17.500000 18.571428 16.000000 12.875000 12.625000  2.333333  2.625000  6.187500  5.823529 12.333333 12.333333 13.333333 13.000000 
dram[1]: 14.285714 14.571428 17.666666 17.333334 16.125000 15.875000 13.000000 12.250000  2.222222  2.500000  6.125000  5.611111 12.166667 12.166667 13.500000 13.000000 
dram[2]: 14.142858 14.285714 17.666666 17.333334 15.875000 16.500000 12.750000 12.125000  2.625000  2.750000  5.937500  5.882353 12.333333 12.166667 13.666667 13.500000 
dram[3]: 12.750000 16.666666 17.500000 17.500000 15.750000 16.250000 12.500000 12.250000  2.444444  2.750000  5.937500  7.538462 12.333333 12.166667 13.333333 13.500000 
dram[4]: 14.000000 16.500000 17.666666 17.666666 15.875000 16.500000 12.500000 12.125000  2.375000  2.333333  6.187500  6.312500 12.166667 12.166667 13.666667 13.666667 
dram[5]: 16.666666 14.428572 17.500000 17.500000 15.875000 18.857143 12.875000 12.000000  2.625000  2.555556  5.882353  6.000000 12.000000 12.166667 13.166667 13.666667 
average row locality = 8497/784 = 10.838010
number of total memory accesses made:
dram[0]:         0         0         0         0         0         0         0         0         0         0         0         0         0         0         0         0 
dram[1]:         0         0         0         0         0         0         0         0         0         0         0         0         0         0         0         0 
dram[2]:         0         0         0         0         0         0         0         0         0         0         0         0         0         0         0         0 
dram[3]:         0         0         0         0         0         0         0         0         0         0         0         0         0         0         0         0 
dram[4]:         0         0         0         0         0         0         0         0         0         0         0         0         0         0         0         0 
dram[5]:         0         0         0         0         0         0         0         0         0         0         0         0         0         0         0         0 
total accesses: 0
min_bank_accesses = 0!
min_chip_accesses = 0!
number of total read accesses:
dram[0]:        78        75        73        73        84        82        71        71        19        19        82        84        74        74        72        72 
dram[1]:        76        76        74        72        82        81        74        68        18        18        81        85        73        73        73        72 
dram[2]:        75        74        74        72        81        84        72        67        19        20        80        84        74        73        74        73 
dram[3]:        78        74        73        73        80        82        70        68        20        20        81        82        74        73        72        73 
dram[4]:        74        73        74        74        81        83        70        69        18        19        84        83        73        73        74        74 
dram[5]:        74        75        73        73        81        84        73        68        19        21        84        86        72        73        73        74 
total reads: 6587
bank skew: 86/18 = 4.78
chip skew: 1103/1093 = 1.01
number of total write accesses:
dram[0]:        24        26        32        32        46        46        32        30         2         2        17        15         0         0         8         6 
dram[1]:        24        26        32        32        47        46        30        30         2         2        17        16         0         0         8         6 
dram[2]:        24        26        32        32        46        48        30        30         2         2        15        16         0         0         8         8 
dram[3]:        24        26        32        32        46        48        30        30         2         2        14        16         0         0         8         8 
dram[4]:        24        26        32        32        46        49        30        28         1         2        15        18         0         0         8         8 
dram[5]:        26        26        32        32        46        48        30        28         2         2        16        16         0         0         6         8 
total reads: 1910
min_bank_accesses = 0!
chip skew: 319/318 = 1.00
average mf latency per bank:
dram[0]:       1091      1319      1165      1200       585       570       470       406      1991      4344     46003     48672      2804      2044      1173      1095
dram[1]:       1112      1245      1153      1202       582       573       457       436      2791      3976     46394     46836      3249      2137      1159      1088
dram[2]:       1241      1055      1183      1196      1470       548       421       449      3587      4767     48547     46599      1859      2487      1179       844
dram[3]:       1271      1091      1181      1175       591       522       418      1141      4563      3646     50995     51583      2078      2808      1335       900
dram[4]:       1150      1234      1179      1177       590       516       391       423      4276      4423     57046     47174      2892      1986      1076       818
dram[5]:       1118      1203      1175      1167       576       506       425       452      4155      4295     53969     42444      3035      2328      1020      1135
maximum mf latency per bank:
dram[0]:        674       455       362       404       357       365       600       537       389       351       731       608       744       626       653       517
dram[1]:        488       514       342       371       365       351       618       653       346       505       647       632       635       590       513       642
dram[2]:        592       356       432       383       349       365       538       648       429       521       637       626       609       641       521       549
dram[3]:        414       398       364       350       372       357       590       572       398       472       532       617       524       564       444       434
dram[4]:        426       387       408       350       388       365       540       591       456       472       561       527       589       514       652       373
dram[5]:        380       461       357       345       366       336       578       630       371       561       660       681       564       601       628       635

Number of Memory Banks Accessed per Memory Operation per Warp (from 0):
0	0	0	0	0	0	0	0	0	0	0	0	0	0	0	0	0	0	0	0	0	0	0	0	0	0	0	0	0	0	0	0	0	0	0	0	0	0	0	0	0	0	0	0	0	0	0	0	0	0	0	0	0	0	0	0	0	0	0	0	0	0	0	0	0	0	0	0	0	0	0	0	0	0	0	0	0	0	0	0	0	0	0	0	0	0	0	0	0	0	0	0	0	0	0	0	
Average # of Memory Banks Accessed per Memory Operation per Warp=-nan

position of mrq chosen
0	0	0	0	0	0	0	0	0	0	0	0	0	0	0	0	

average position of mrq chosen = -nan
Memory Partition 0: 
Cache L2_bank_000:
MSHR contents

Cache L2_bank_001:
MSHR contents

In Dram Latency Queue (total = 0): 
DRAM[0]: 16 bks, busW=4 BL=8 CL=12, tRRD=2 tCCD=6, tRCD=12 tRAS=28 tRP=12 tRC=40
n_cmd=702671 n_nop=699581 n_act=132 n_pre=116 n_req=1421 n_rd=2206 n_write=636 bw_util=0.008089
n_activity=21602 dram_eff=0.2631
bk0: 156a 701682i bk1: 150a 701580i bk2: 146a 701522i bk3: 146a 701523i bk4: 168a 701202i bk5: 164a 701200i bk6: 142a 701630i bk7: 142a 701605i bk8: 38a 702383i bk9: 38a 702371i bk10: 164a 701708i bk11: 168a 701590i bk12: 148a 702126i bk13: 148a 702193i bk14: 144a 701989i bk15: 144a 701912i 
dram_util_bins: 0 0 0 0 0 0 0 0 0 0
dram_eff_bins: 0 0 0 0 0 0 0 0 0 0
mrqq: max=10 avg=0.00820583
Memory Partition 1: 
Cache L2_bank_002:
MSHR contents

Cache L2_bank_003:
MSHR contents

In Dram Latency Queue (total = 0): 
DRAM[1]: 16 bks, busW=4 BL=8 CL=12, tRRD=2 tCCD=6, tRCD=12 tRAS=28 tRP=12 tRC=40
n_cmd=702671 n_nop=699593 n_act=133 n_pre=117 n_req=1414 n_rd=2192 n_write=636 bw_util=0.008049
n_activity=21487 dram_eff=0.2632
bk0: 152a 701592i bk1: 152a 701543i bk2: 148a 701492i bk3: 144a 701549i bk4: 164a 701138i bk5: 162a 701195i bk6: 148a 701627i bk7: 136a 701591i bk8: 36a 702384i bk9: 36a 702392i bk10: 162a 701684i bk11: 170a 701558i bk12: 146a 702106i bk13: 146a 702153i bk14: 146a 702022i bk15: 144a 701953i 
dram_util_bins: 0 0 0 0 0 0 0 0 0 0
dram_eff_bins: 0 0 0 0 0 0 0 0 0 0
mrqq: max=8 avg=0.00926323
Memory Partition 2: 
Cache L2_bank_004:
MSHR contents

Cache L2_bank_005:
MSHR contents

In Dram Latency Queue (total = 0): 
DRAM[2]: 16 bks, busW=4 BL=8 CL=12, tRRD=2 tCCD=6, tRCD=12 tRAS=28 tRP=12 tRC=40
n_cmd=702671 n_nop=699595 n_act=131 n_pre=115 n_req=1415 n_rd=2192 n_write=638 bw_util=0.008055
n_activity=21400 dram_eff=0.2645
bk0: 150a 701614i bk1: 148a 701563i bk2: 148a 701495i bk3: 144a 701529i bk4: 162a 701271i bk5: 168a 701201i bk6: 144a 701603i bk7: 134a 701631i bk8: 38a 702367i bk9: 40a 702360i bk10: 160a 701730i bk11: 168a 701754i bk12: 148a 702167i bk13: 146a 702164i bk14: 148a 701961i bk15: 146a 701881i 
dram_util_bins: 0 0 0 0 0 0 0 0 0 0
dram_eff_bins: 0 0 0 0 0 0 0 0 0 0
mrqq: max=11 avg=0.00891313
Memory Partition 3: 
Cache L2_bank_006:
MSHR contents

Cache L2_bank_007:
MSHR contents

In Dram Latency Queue (total = 0): 
DRAM[3]: 16 bks, busW=4 BL=8 CL=12, tRRD=2 tCCD=6, tRCD=12 tRAS=28 tRP=12 tRC=40
n_cmd=702671 n_nop=699609 n_act=128 n_pre=112 n_req=1411 n_rd=2186 n_write=636 bw_util=0.008032
n_activity=21007 dram_eff=0.2687
bk0: 156a 701475i bk1: 148a 701599i bk2: 146a 701500i bk3: 146a 701483i bk4: 160a 701186i bk5: 164a 701045i bk6: 140a 701640i bk7: 136a 701636i bk8: 40a 702373i bk9: 40a 702352i bk10: 162a 701740i bk11: 164a 701648i bk12: 148a 702168i bk13: 146a 702153i bk14: 144a 702051i bk15: 146a 701913i 
dram_util_bins: 0 0 0 0 0 0 0 0 0 0
dram_eff_bins: 0 0 0 0 0 0 0 0 0 0
mrqq: max=8 avg=0.00885478
Memory Partition 4: 
Cache L2_bank_008:
MSHR contents

Cache L2_bank_009:
MSHR contents

In Dram Latency Queue (total = 0): 
DRAM[4]: 16 bks, busW=4 BL=8 CL=12, tRRD=2 tCCD=6, tRCD=12 tRAS=28 tRP=12 tRC=40
n_cmd=702671 n_nop=699597 n_act=130 n_pre=114 n_req=1415 n_rd=2192 n_write=638 bw_util=0.008055
n_activity=21340 dram_eff=0.2652
bk0: 148a 701635i bk1: 146a 701627i bk2: 148a 701428i bk3: 148a 701521i bk4: 162a 701178i bk5: 166a 701104i bk6: 140a 701694i bk7: 138a 701641i bk8: 36a 702398i bk9: 38a 702362i bk10: 168a 701738i bk11: 166a 701573i bk12: 146a 702090i bk13: 146a 702132i bk14: 148a 701975i bk15: 148a 701882i 
dram_util_bins: 0 0 0 0 0 0 0 0 0 0
dram_eff_bins: 0 0 0 0 0 0 0 0 0 0
mrqq: max=7 avg=0.00918922
Memory Partition 5: 
Cache L2_bank_010:
MSHR contents

Cache L2_bank_011:
MSHR contents

In Dram Latency Queue (total = 0): 
DRAM[5]: 16 bks, busW=4 BL=8 CL=12, tRRD=2 tCCD=6, tRCD=12 tRAS=28 tRP=12 tRC=40
n_cmd=702671 n_nop=699583 n_act=131 n_pre=115 n_req=1421 n_rd=2206 n_write=636 bw_util=0.008089
n_activity=21480 dram_eff=0.2646
bk0: 148a 701526i bk1: 150a 701700i bk2: 146a 701517i bk3: 146a 701479i bk4: 162a 701222i bk5: 168a 701226i bk6: 146a 701627i bk7: 136a 701677i bk8: 38a 702362i bk9: 42a 702378i bk10: 168a 701679i bk11: 172a 701661i bk12: 144a 702174i bk13: 146a 702157i bk14: 146a 702007i bk15: 148a 701897i 
dram_util_bins: 0 0 0 0 0 0 0 0 0 0
dram_eff_bins: 0 0 0 0 0 0 0 0 0 0
mrqq: max=10 avg=0.00879359

========= L2 cache stats =========
L2_cache_bank[0]: Access = 26769, Miss = 553, Miss_rate = 0.021, Pending_hits = 427, Reservation_fails = 2899
L2_cache_bank[1]: Access = 27979, Miss = 550, Miss_rate = 0.020, Pending_hits = 418, Reservation_fails = 2476
L2_cache_bank[2]: Access = 26868, Miss = 551, Miss_rate = 0.021, Pending_hits = 420, Reservation_fails = 2203
L2_cache_bank[3]: Access = 27261, Miss = 545, Miss_rate = 0.020, Pending_hits = 390, Reservation_fails = 2268
L2_cache_bank[4]: Access = 26548, Miss = 549, Miss_rate = 0.021, Pending_hits = 395, Reservation_fails = 2263
L2_cache_bank[5]: Access = 25995, Miss = 547, Miss_rate = 0.021, Pending_hits = 405, Reservation_fails = 2140
L2_cache_bank[6]: Access = 26740, Miss = 548, Miss_rate = 0.020, Pending_hits = 384, Reservation_fails = 1759
L2_cache_bank[7]: Access = 28162, Miss = 545, Miss_rate = 0.019, Pending_hits = 397, Reservation_fails = 1831
L2_cache_bank[8]: Access = 31251, Miss = 548, Miss_rate = 0.018, Pending_hits = 382, Reservation_fails = 1682
L2_cache_bank[9]: Access = 26675, Miss = 548, Miss_rate = 0.021, Pending_hits = 384, Reservation_fails = 1798
L2_cache_bank[10]: Access = 30775, Miss = 549, Miss_rate = 0.018, Pending_hits = 405, Reservation_fails = 1537
L2_cache_bank[11]: Access = 25280, Miss = 554, Miss_rate = 0.022, Pending_hits = 420, Reservation_fails = 2566
L2_total_cache_accesses = 330303
L2_total_cache_misses = 6587
L2_total_cache_miss_rate = 0.0199
L2_total_cache_pending_hits = 4827
L2_total_cache_reservation_fails = 25422
L2_total_cache_breakdown:
	L2_cache_stats_breakdown[GLOBAL_ACC_R][HIT] = 25042
	L2_cache_stats_breakdown[GLOBAL_ACC_R][HIT_RESERVED] = 4786
	L2_cache_stats_breakdown[GLOBAL_ACC_R][MISS] = 4868
	L2_cache_stats_breakdown[GLOBAL_ACC_R][RESERVATION_FAIL] = 24355
	L2_cache_stats_breakdown[CONST_ACC_R][HIT] = 13
	L2_cache_stats_breakdown[CONST_ACC_R][HIT_RESERVED] = 1
	L2_cache_stats_breakdown[CONST_ACC_R][MISS] = 1
	L2_cache_stats_breakdown[GLOBAL_ACC_W][HIT] = 293718
	L2_cache_stats_breakdown[GLOBAL_ACC_W][MISS] = 1696
	L2_cache_stats_breakdown[INST_ACC_R][HIT] = 116
	L2_cache_stats_breakdown[INST_ACC_R][HIT_RESERVED] = 40
	L2_cache_stats_breakdown[INST_ACC_R][MISS] = 22
	L2_cache_stats_breakdown[INST_ACC_R][RESERVATION_FAIL] = 1067
L2_cache_data_port_util = 0.100
L2_cache_fill_port_util = 0.004

icnt_total_pkts_mem_to_simt=469829
icnt_total_pkts_simt_to_mem=874597
LD_mem_lat_dist  0 0 0 0 0 0 0 0 0 0 0 0 0 0 0 0 0 0 0 0 0 0 0 0 0 0 0
ST_mem_lat_dist  0 0 0 0 0 0 0 0 0 0 0 0 0 0 0 0 0 0 0 0 0 0 0 0 0 0 0
----------------------------Interconnect-DETAILS--------------------------------
Class 0:
Packet latency average = 7.5
	minimum = 6
	maximum = 10
Network latency average = 7.5
	minimum = 6
	maximum = 10
Slowest packet = 660602
Flit latency average = 6
	minimum = 6
	maximum = 6
Slowest flit = 1344411
Fragmentation average = 0
	minimum = 0
	maximum = 0
Injected packet rate average = 0.000381825
	minimum = 0 (at node 0)
	maximum = 0.00515464 (at node 9)
Accepted packet rate average = 0.000381825
	minimum = 0 (at node 0)
	maximum = 0.00515464 (at node 9)
Injected flit rate average = 0.000954563
	minimum = 0 (at node 0)
	maximum = 0.0103093 (at node 22)
Accepted flit rate average= 0.000954563
	minimum = 0 (at node 0)
	maximum = 0.0189003 (at node 9)
Injected packet length average = 2.5
Accepted packet length average = 2.5
Total in-flight flits = 0 (0 measured)
====== Overall Traffic Statistics ======
====== Traffic class 0 ======
Packet latency average = 14.8445 (13 samples)
	minimum = 6 (13 samples)
	maximum = 113 (13 samples)
Network latency average = 12.0949 (13 samples)
	minimum = 6 (13 samples)
	maximum = 105.385 (13 samples)
Flit latency average = 10.9475 (13 samples)
	minimum = 6 (13 samples)
	maximum = 102.154 (13 samples)
Fragmentation average = 0.00378117 (13 samples)
	minimum = 0 (13 samples)
	maximum = 42.2308 (13 samples)
Injected packet rate average = 0.0308584 (13 samples)
	minimum = 0.0204246 (13 samples)
	maximum = 0.0533404 (13 samples)
Accepted packet rate average = 0.0308584 (13 samples)
	minimum = 0.0204246 (13 samples)
	maximum = 0.0533404 (13 samples)
Injected flit rate average = 0.074633 (13 samples)
	minimum = 0.0439936 (13 samples)
	maximum = 0.156524 (13 samples)
Accepted flit rate average = 0.074633 (13 samples)
	minimum = 0.040065 (13 samples)
	maximum = 0.137784 (13 samples)
Injected packet size average = 2.41857 (13 samples)
Accepted packet size average = 2.41857 (13 samples)
Hops average = 1 (13 samples)
----------------------------END-of-Interconnect-DETAILS-------------------------


gpgpu_simulation_time = 0 days, 0 hrs, 2 min, 40 sec (160 sec)
gpgpu_simulation_rate = 124828 (inst/sec)
gpgpu_simulation_rate = 3327 (cycle/sec)
