

        *** GPGPU-Sim Simulator Version 3.2.2  [build 0] ***


GPGPU-Sim PTX: simulation mode 0 (can change with PTX_SIM_MODE_FUNC environment variable:
               1=functional simulation only, 0=detailed performance simulator)
GPGPU-Sim: Configuration options:

-network_mode                           1 # Interconnection network mode
-inter_config_file   config_fermi_islip.icnt # Interconnection network config file
-gpgpu_ptx_use_cuobjdump                    1 # Use cuobjdump to extract ptx and sass from binaries
-gpgpu_experimental_lib_support                    0 # Try to extract code from cuda libraries [Broken because of unknown cudaGetExportTable]
-gpgpu_ptx_convert_to_ptxplus                    0 # Convert SASS (native ISA) to ptxplus and run ptxplus
-gpgpu_ptx_force_max_capability                   20 # Force maximum compute capability
-gpgpu_ptx_inst_debug_to_file                    0 # Dump executed instructions' debug information to file
-gpgpu_ptx_inst_debug_file       inst_debug.txt # Executed instructions' debug output file
-gpgpu_ptx_inst_debug_thread_uid                    1 # Thread UID for executed instructions' debug output
-gpgpu_simd_model                       1 # 1 = post-dominator
-gpgpu_shader_core_pipeline              1536:32 # shader core pipeline config, i.e., {<nthread>:<warpsize>}
-gpgpu_tex_cache:l1  4:128:24,L:R:m:N:L,F:128:4,128:2 # per-shader L1 texture cache  (READ-ONLY) config  {<nsets>:<bsize>:<assoc>,<rep>:<wr>:<alloc>:<wr_alloc>,<mshr>:<N>:<merge>,<mq>:<rf>}
-gpgpu_const_cache:l1 64:64:2,L:R:f:N:L,A:2:32,4 # per-shader L1 constant memory cache  (READ-ONLY) config  {<nsets>:<bsize>:<assoc>,<rep>:<wr>:<alloc>:<wr_alloc>,<mshr>:<N>:<merge>,<mq>} 
-gpgpu_cache:il1     4:128:4,L:R:f:N:L,A:2:32,4 # shader L1 instruction cache config  {<nsets>:<bsize>:<assoc>,<rep>:<wr>:<alloc>:<wr_alloc>,<mshr>:<N>:<merge>,<mq>} 
-gpgpu_cache:dl1     32:128:4,L:L:m:N:H,A:32:8,8 # per-shader L1 data cache config  {<nsets>:<bsize>:<assoc>,<rep>:<wr>:<alloc>:<wr_alloc>,<mshr>:<N>:<merge>,<mq> | none}
-gpgpu_cache:dl1PrefL1                 none # per-shader L1 data cache config  {<nsets>:<bsize>:<assoc>,<rep>:<wr>:<alloc>:<wr_alloc>,<mshr>:<N>:<merge>,<mq> | none}
-gpgpu_cache:dl1PreShared                 none # per-shader L1 data cache config  {<nsets>:<bsize>:<assoc>,<rep>:<wr>:<alloc>:<wr_alloc>,<mshr>:<N>:<merge>,<mq> | none}
-gmem_skip_L1D                          0 # global memory access skip L1D cache (implements -Xptxas -dlcm=cg, default=no skip)
-gpgpu_perfect_mem                      0 # enable perfect memory mode (no cache miss)
-n_regfile_gating_group                    4 # group of lanes that should be read/written together)
-gpgpu_clock_gated_reg_file                    0 # enable clock gated reg file for power calculations
-gpgpu_clock_gated_lanes                    0 # enable clock gated lanes for power calculations
-gpgpu_shader_registers                32768 # Number of registers per shader core. Limits number of concurrent CTAs. (default 8192)
-gpgpu_shader_cta                       8 # Maximum number of concurrent CTAs in shader (default 8)
-gpgpu_num_cta_barriers                   16 # Maximum number of named barriers per CTA (default 16)
-gpgpu_n_clusters                      15 # number of processing clusters
-gpgpu_n_cores_per_cluster                    1 # number of simd cores per cluster
-gpgpu_n_cluster_ejection_buffer_size                    8 # number of packets in ejection buffer
-gpgpu_n_ldst_response_buffer_size                    2 # number of response packets in ld/st unit ejection buffer
-gpgpu_shmem_size                   16384 # Size of shared memory per shader core (default 16kB)
-gpgpu_shmem_size                   49152 # Size of shared memory per shader core (default 16kB)
-gpgpu_shmem_size_PrefL1                16384 # Size of shared memory per shader core (default 16kB)
-gpgpu_shmem_size_PrefShared                16384 # Size of shared memory per shader core (default 16kB)
-gpgpu_shmem_num_banks                   32 # Number of banks in the shared memory in each shader core (default 16)
-gpgpu_shmem_limited_broadcast                    0 # Limit shared memory to do one broadcast per cycle (default on)
-gpgpu_shmem_warp_parts                    1 # Number of portions a warp is divided into for shared memory bank conflict check 
-gpgpu_warpdistro_shader                   -1 # Specify which shader core to collect the warp size distribution from
-gpgpu_warp_issue_shader                    0 # Specify which shader core to collect the warp issue distribution from
-gpgpu_local_mem_map                    1 # Mapping from local memory space address to simulated GPU physical address space (default = enabled)
-gpgpu_num_reg_banks                   16 # Number of register banks (default = 8)
-gpgpu_reg_bank_use_warp_id                    0 # Use warp ID in mapping registers to banks (default = off)
-gpgpu_operand_collector_num_units_sp                    6 # number of collector units (default = 4)
-gpgpu_operand_collector_num_units_sfu                    8 # number of collector units (default = 4)
-gpgpu_operand_collector_num_units_mem                    2 # number of collector units (default = 2)
-gpgpu_operand_collector_num_units_gen                    0 # number of collector units (default = 0)
-gpgpu_operand_collector_num_in_ports_sp                    2 # number of collector unit in ports (default = 1)
-gpgpu_operand_collector_num_in_ports_sfu                    1 # number of collector unit in ports (default = 1)
-gpgpu_operand_collector_num_in_ports_mem                    1 # number of collector unit in ports (default = 1)
-gpgpu_operand_collector_num_in_ports_gen                    0 # number of collector unit in ports (default = 0)
-gpgpu_operand_collector_num_out_ports_sp                    2 # number of collector unit in ports (default = 1)
-gpgpu_operand_collector_num_out_ports_sfu                    1 # number of collector unit in ports (default = 1)
-gpgpu_operand_collector_num_out_ports_mem                    1 # number of collector unit in ports (default = 1)
-gpgpu_operand_collector_num_out_ports_gen                    0 # number of collector unit in ports (default = 0)
-gpgpu_coalesce_arch                   13 # Coalescing arch (default = 13, anything else is off for now)
-gpgpu_num_sched_per_core                    2 # Number of warp schedulers per core
-gpgpu_max_insn_issue_per_warp                    1 # Max number of instructions that can be issued per warp in one cycle by scheduler
-gpgpu_simt_core_sim_order                    1 # Select the simulation order of cores in a cluster (0=Fix, 1=Round-Robin)
-gpgpu_pipeline_widths        2,1,1,2,1,1,2 # Pipeline widths ID_OC_SP,ID_OC_SFU,ID_OC_MEM,OC_EX_SP,OC_EX_SFU,OC_EX_MEM,EX_WB
-gpgpu_num_sp_units                     2 # Number of SP units (default=1)
-gpgpu_num_sfu_units                    1 # Number of SF units (default=1)
-gpgpu_num_mem_units                    1 # Number if ldst units (default=1) WARNING: not hooked up to anything
-gpgpu_scheduler                      gto # Scheduler configuration: < lrr | gto | two_level_active > If two_level_active:<num_active_warps>:<inner_prioritization>:<outer_prioritization>For complete list of prioritization values see shader.h enum scheduler_prioritization_typeDefault: gto
-gpgpu_dram_scheduler                    1 # 0 = fifo, 1 = FR-FCFS (defaul)
-gpgpu_dram_partition_queues              8:8:8:8 # i2$:$2d:d2$:$2i
-l2_ideal                               0 # Use a ideal L2 cache that always hit
-gpgpu_cache:dl2     64:128:8,L:B:m:W:L,A:32:4,4:0,32 # unified banked L2 data cache config  {<nsets>:<bsize>:<assoc>,<rep>:<wr>:<alloc>:<wr_alloc>,<mshr>:<N>:<merge>,<mq>}
-gpgpu_cache:dl2_texture_only                    0 # L2 cache used for texture only
-gpgpu_n_mem                            6 # number of memory modules (e.g. memory controllers) in gpu
-gpgpu_n_sub_partition_per_mchannel                    2 # number of memory subpartition in each memory module
-gpgpu_n_mem_per_ctrlr                    2 # number of memory chips per memory controller
-gpgpu_memlatency_stat                   14 # track and display latency statistics 0x2 enables MC, 0x4 enables queue logs
-gpgpu_frfcfs_dram_sched_queue_size                   16 # 0 = unlimited (default); # entries per chip
-gpgpu_dram_return_queue_size                  116 # 0 = unlimited (default); # entries per chip
-gpgpu_dram_buswidth                    4 # default = 4 bytes (8 bytes per cycle at DDR)
-gpgpu_dram_burst_length                    8 # Burst length of each DRAM request (default = 4 data bus cycle)
-dram_data_command_freq_ratio                    4 # Frequency ratio between DRAM data bus and command bus (default = 2 times, i.e. DDR)
-gpgpu_dram_timing_opt nbk=16:CCD=2:RRD=6:RCD=12:RAS=28:RP=12:RC=40: CL=12:WL=4:CDLR=5:WR=12:nbkgrp=4:CCDL=3:RTPL=2 # DRAM timing parameters = {nbk:tCCD:tRRD:tRCD:tRAS:tRP:tRC:CL:WL:tCDLR:tWR:nbkgrp:tCCDL:tRTPL}
-rop_latency                          120 # ROP queue latency (default 85)
-dram_latency                         100 # DRAM latency (default 30)
-gpgpu_mem_addr_mapping dramid@8;00000000.00000000.00000000.00000000.0000RRRR.RRRRRRRR.BBBCCCCB.CCSSSSSS # mapping memory address to dram model {dramid@<start bit>;<memory address map>}
-gpgpu_mem_addr_test                    0 # run sweep test to check address mapping for aliased address
-gpgpu_mem_address_mask                    1 # 0 = old addressing mask, 1 = new addressing mask, 2 = new add. mask + flipped bank sel and chip sel bits
-gpuwattch_xml_file  gpuwattch_gtx480.xml # GPUWattch XML file
-power_simulation_enabled                    1 # Turn on power simulator (1=On, 0=Off)
-power_per_cycle_dump                    0 # Dump detailed power output each cycle
-power_trace_enabled                    0 # produce a file for the power trace (1=On, 0=Off)
-power_trace_zlevel                     6 # Compression level of the power trace output log (0=no comp, 9=highest)
-steady_power_levels_enabled                    0 # produce a file for the steady power levels (1=On, 0=Off)
-steady_state_definition                  8:4 # allowed deviation:number of samples
-gpgpu_max_cycle                        0 # terminates gpu simulation early (0 = no limit)
-gpgpu_max_insn                         0 # terminates gpu simulation early (0 = no limit)
-gpgpu_max_cta                          0 # terminates gpu simulation early (0 = no limit)
-gpgpu_runtime_stat                   500 # display runtime statistics such as dram utilization {<freq>:<flag>}
-liveness_message_freq                    1 # Minimum number of seconds between simulation liveness messages (0 = always print)
-gpgpu_flush_l1_cache                    0 # Flush L1 cache at the end of each kernel call
-gpgpu_flush_l2_cache                    0 # Flush L2 cache at the end of each kernel call
-gpgpu_deadlock_detect                    1 # Stop the simulation at deadlock (1=on (default), 0=off)
-gpgpu_ptx_instruction_classification                    0 # if enabled will classify ptx instruction types per kernel (Max 255 kernels now)
-gpgpu_ptx_sim_mode                     0 # Select between Performance (default) or Functional simulation (1)
-gpgpu_clock_domains 700.0:700.0:700.0:924.0 # Clock Domain Frequencies in MhZ {<Core Clock>:<ICNT Clock>:<L2 Clock>:<DRAM Clock>}
-gpgpu_max_concurrent_kernel                    8 # maximum kernels that can run concurrently on GPU
-gpgpu_cflog_interval                    0 # Interval between each snapshot in control flow logger
-visualizer_enabled                     0 # Turn on visualizer output (1=On, 0=Off)
-visualizer_outputfile                 NULL # Specifies the output log file for visualizer
-visualizer_zlevel                      6 # Compression level of the visualizer output log (0=no comp, 9=highest)
-trace_enabled                          0 # Turn on traces
-trace_components                    none # comma seperated list of traces to enable. Complete list found in trace_streams.tup. Default none
-trace_sampling_core                    0 # The core which is printed using CORE_DPRINTF. Default 0
-trace_sampling_memory_partition                   -1 # The memory partition which is printed using MEMPART_DPRINTF. Default -1 (i.e. all)
-enable_ptx_file_line_stats                    1 # Turn on PTX source line statistic profiling. (1 = On)
-ptx_line_stats_filename gpgpu_inst_stats.txt # Output file for PTX source line statistics.
-save_embedded_ptx                      0 # saves ptx files embedded in binary as <n>.ptx
-keep                                   0 # keep intermediate files created by GPGPU-Sim when interfacing with external programs
-gpgpu_ptx_save_converted_ptxplus                    0 # Saved converted ptxplus to a file
-ptx_opcode_latency_int         4,13,4,5,145 # Opcode latencies for integers <ADD,MAX,MUL,MAD,DIV>Default 1,1,19,25,145
-ptx_opcode_latency_fp          4,13,4,5,39 # Opcode latencies for single precision floating points <ADD,MAX,MUL,MAD,DIV>Default 1,1,1,1,30
-ptx_opcode_latency_dp         8,19,8,8,330 # Opcode latencies for double precision floating points <ADD,MAX,MUL,MAD,DIV>Default 8,8,8,8,335
-ptx_opcode_initiation_int            1,2,2,1,8 # Opcode initiation intervals for integers <ADD,MAX,MUL,MAD,DIV>Default 1,1,4,4,32
-ptx_opcode_initiation_fp            1,2,1,1,4 # Opcode initiation intervals for single precision floating points <ADD,MAX,MUL,MAD,DIV>Default 1,1,1,1,5
-ptx_opcode_initiation_dp         8,16,8,8,130 # Opcode initiation intervals for double precision floating points <ADD,MAX,MUL,MAD,DIV>Default 8,8,8,8,130
DRAM Timing Options:
nbk                                    16 # number of banks
CCD                                     2 # column to column delay
RRD                                     6 # minimal delay between activation of rows in different banks
RCD                                    12 # row to column delay
RAS                                    28 # time needed to activate row
RP                                     12 # time needed to precharge (deactivate) row
RC                                     40 # row cycle time
CDLR                                    5 # switching from write to read (changes tWTR)
WR                                     12 # last data-in to row precharge
CL                                     12 # CAS latency
WL                                      4 # Write latency
nbkgrp                                  4 # number of bank groups
CCDL                                    3 # column to column delay between accesses to different bank groups
RTPL                                    2 # read to precharge delay between accesses to different bank groups
Total number of memory sub partition = 12
addr_dec_mask[CHIP]  = 0000000000000000 	high:64 low:0
addr_dec_mask[BK]    = 000000000000e100 	high:16 low:8
addr_dec_mask[ROW]   = 000000000fff0000 	high:28 low:16
addr_dec_mask[COL]   = 0000000000001eff 	high:13 low:0
addr_dec_mask[BURST] = 000000000000003f 	high:6 low:0
sub_partition_id_mask = 0000000000000100
GPGPU-Sim uArch: clock freqs: 700000000.000000:700000000.000000:700000000.000000:924000000.000000
GPGPU-Sim uArch: clock periods: 0.00000000142857142857:0.00000000142857142857:0.00000000142857142857:0.00000000108225108225
*** Initializing Memory Statistics ***
GPGPU-Sim uArch: interconnect node map (shaderID+MemID to icntID)
GPGPU-Sim uArch: Memory nodes ID start from index: 15
GPGPU-Sim uArch:    0   1   2   3   4
GPGPU-Sim uArch:    5   6   7   8   9
GPGPU-Sim uArch:   10  11  12  13  14
GPGPU-Sim uArch:   15  16  17  18  19
GPGPU-Sim uArch:   20  21  22  23  24
GPGPU-Sim uArch:   25  26
GPGPU-Sim uArch: interconnect node reverse map (icntID to shaderID+MemID)
GPGPU-Sim uArch: Memory nodes start from ID: 15
GPGPU-Sim uArch:    0   1   2   3   4
GPGPU-Sim uArch:    5   6   7   8   9
GPGPU-Sim uArch:   10  11  12  13  14
GPGPU-Sim uArch:   15  16  17  18  19
GPGPU-Sim uArch:   20  21  22  23  24
GPGPU-Sim uArch:   25  26
c6135e187ab047f20864538dd630e41d  /home/bing/cu_learn/im2col/src/bin/main
GPGPU-Sim uArch: performance model initialization complete.
GPGPU-Sim PTX: __cudaRegisterFatBinary, fat_cubin_handle = 1, filename=/home/bing/cu_learn/im2col/src/col2im.cu
self exe links to: /home/bing/cu_learn/im2col/src/bin/main
Running md5sum using "md5sum /home/bing/cu_learn/im2col/src/bin/main "
Running cuobjdump using "$CUDA_INSTALL_PATH/bin/cuobjdump -ptx -elf -sass /home/bing/cu_learn/im2col/src/bin/main > _cuobjdump_complete_output_ZxMMA6"
Parsing file _cuobjdump_complete_output_ZxMMA6
######### cuobjdump parser ########
## Adding new section ELF
Adding arch: sm_20
Adding identifier: /home/bing/cu_learn/im2col/src/col2im.cu
## Adding new section PTX
Adding ptx filename: _cuobjdump_1.ptx
Adding arch: sm_20
Adding identifier: /home/bing/cu_learn/im2col/src/col2im.cu
## Adding new section ELF
Adding arch: sm_20
Adding identifier: /home/bing/cu_learn/im2col/src/cuda_conv.cu
## Adding new section PTX
Adding ptx filename: _cuobjdump_2.ptx
Adding arch: sm_20
Adding identifier: /home/bing/cu_learn/im2col/src/cuda_conv.cu
## Adding new section ELF
Adding arch: sm_20
Adding identifier: /home/bing/cu_learn/im2col/src/fc.cu
## Adding new section PTX
Adding ptx filename: _cuobjdump_3.ptx
Adding arch: sm_20
Adding identifier: /home/bing/cu_learn/im2col/src/fc.cu
## Adding new section ELF
Adding arch: sm_20
Adding identifier: /home/bing/cu_learn/im2col/src/im2col.cu
## Adding new section PTX
Adding ptx filename: _cuobjdump_4.ptx
Adding arch: sm_20
Adding identifier: /home/bing/cu_learn/im2col/src/im2col.cu
Done parsing!!!
GPGPU-Sim PTX: __cudaRegisterFunction _Z17col2im_gpu_kernelIdEviPKT_iiiiiiiiPS0_ : hostFun 0x0x4015b0, fat_cubin_handle = 1
GPGPU-Sim PTX: instruction assembly for function '_Z17col2im_gpu_kernelIfEviPKT_iiiiiiiiPS0_'...   done.
GPGPU-Sim PTX: finding reconvergence points for '_Z17col2im_gpu_kernelIfEviPKT_iiiiiiiiPS0_'...
GPGPU-Sim PTX: Finding dominators for '_Z17col2im_gpu_kernelIfEviPKT_iiiiiiiiPS0_'...
GPGPU-Sim PTX: Finding immediate dominators for '_Z17col2im_gpu_kernelIfEviPKT_iiiiiiiiPS0_'...
GPGPU-Sim PTX: Finding postdominators for '_Z17col2im_gpu_kernelIfEviPKT_iiiiiiiiPS0_'...
GPGPU-Sim PTX: Finding immediate postdominators for '_Z17col2im_gpu_kernelIfEviPKT_iiiiiiiiPS0_'...
GPGPU-Sim PTX: pre-decoding instructions for '_Z17col2im_gpu_kernelIfEviPKT_iiiiiiiiPS0_'...
GPGPU-Sim PTX: reconvergence points for _Z17col2im_gpu_kernelIfEviPKT_iiiiiiiiPS0_...
GPGPU-Sim PTX:  1 (potential) branch divergence @  PC=0x040 (_1.ptx:79) @%p1 bra $Lt_0_4866;
GPGPU-Sim PTX:    immediate post dominator      @  PC=0x338 (_1.ptx:195) exit;
GPGPU-Sim PTX:  2 (potential) branch divergence @  PC=0x0d0 (_1.ptx:99) @%p2 bra $Lt_0_5890;
GPGPU-Sim PTX:    immediate post dominator      @  PC=0x100 (_1.ptx:108) div.s32 %r21, %r6, %r15;
GPGPU-Sim PTX:  3 (potential) branch divergence @  PC=0x0f0 (_1.ptx:104) bra.uni $Lt_0_5634;
GPGPU-Sim PTX:    immediate post dominator      @  PC=0x100 (_1.ptx:108) div.s32 %r21, %r6, %r15;
GPGPU-Sim PTX:  4 (potential) branch divergence @  PC=0x120 (_1.ptx:112) @%p3 bra $Lt_0_6402;
GPGPU-Sim PTX:    immediate post dominator      @  PC=0x150 (_1.ptx:122) mov.s32 %r27, %r26;
GPGPU-Sim PTX:  5 (potential) branch divergence @  PC=0x140 (_1.ptx:117) bra.uni $Lt_0_6146;
GPGPU-Sim PTX:    immediate post dominator      @  PC=0x150 (_1.ptx:122) mov.s32 %r27, %r26;
GPGPU-Sim PTX:  6 (potential) branch divergence @  PC=0x178 (_1.ptx:127) @%p4 bra $Lt_0_9218;
GPGPU-Sim PTX:    immediate post dominator      @  PC=0x310 (_1.ptx:188) st.global.f32 [%rd5+0], %f1;
GPGPU-Sim PTX:  7 (potential) branch divergence @  PC=0x250 (_1.ptx:157) @!%p5 bra $Lt_0_7426;
GPGPU-Sim PTX:    immediate post dominator      @  PC=0x2e8 (_1.ptx:180) add.s32 %r27, %r27, 1;
GPGPU-Sim PTX:  8 (potential) branch divergence @  PC=0x2e0 (_1.ptx:178) @%p6 bra $Lt_0_7938;
GPGPU-Sim PTX:    immediate post dominator      @  PC=0x2e8 (_1.ptx:180) add.s32 %r27, %r27, 1;
GPGPU-Sim PTX:  9 (potential) branch divergence @  PC=0x2f8 (_1.ptx:182) @%p7 bra $Lt_0_7170;
GPGPU-Sim PTX:    immediate post dominator      @  PC=0x300 (_1.ptx:183) bra.uni $Lt_0_6658;
GPGPU-Sim PTX: 10 (potential) branch divergence @  PC=0x300 (_1.ptx:183) bra.uni $Lt_0_6658;
GPGPU-Sim PTX:    immediate post dominator      @  PC=0x310 (_1.ptx:188) st.global.f32 [%rd5+0], %f1;
GPGPU-Sim PTX: 11 (potential) branch divergence @  PC=0x330 (_1.ptx:192) @%p8 bra $Lt_0_5378;
GPGPU-Sim PTX:    immediate post dominator      @  PC=0x338 (_1.ptx:195) exit;
GPGPU-Sim PTX: ... end of reconvergence points for _Z17col2im_gpu_kernelIfEviPKT_iiiiiiiiPS0_
GPGPU-Sim PTX: ... done pre-decoding instructions for '_Z17col2im_gpu_kernelIfEviPKT_iiiiiiiiPS0_'.
GPGPU-Sim PTX: instruction assembly for function '_Z17col2im_gpu_kernelIdEviPKT_iiiiiiiiPS0_'...   done.
GPGPU-Sim PTX: finding reconvergence points for '_Z17col2im_gpu_kernelIdEviPKT_iiiiiiiiPS0_'...
GPGPU-Sim PTX: Finding dominators for '_Z17col2im_gpu_kernelIdEviPKT_iiiiiiiiPS0_'...
GPGPU-Sim PTX: Finding immediate dominators for '_Z17col2im_gpu_kernelIdEviPKT_iiiiiiiiPS0_'...
GPGPU-Sim PTX: Finding postdominators for '_Z17col2im_gpu_kernelIdEviPKT_iiiiiiiiPS0_'...
GPGPU-Sim PTX: Finding immediate postdominators for '_Z17col2im_gpu_kernelIdEviPKT_iiiiiiiiPS0_'...
GPGPU-Sim PTX: pre-decoding instructions for '_Z17col2im_gpu_kernelIdEviPKT_iiiiiiiiPS0_'...
GPGPU-Sim PTX: reconvergence points for _Z17col2im_gpu_kernelIdEviPKT_iiiiiiiiPS0_...
GPGPU-Sim PTX:  1 (potential) branch divergence @  PC=0x380 (_1.ptx:227) @%p1 bra $Lt_1_4866;
GPGPU-Sim PTX:    immediate post dominator      @  PC=0x678 (_1.ptx:343) exit;
GPGPU-Sim PTX:  2 (potential) branch divergence @  PC=0x410 (_1.ptx:247) @%p2 bra $Lt_1_5890;
GPGPU-Sim PTX:    immediate post dominator      @  PC=0x440 (_1.ptx:256) div.s32 %r21, %r6, %r15;
GPGPU-Sim PTX:  3 (potential) branch divergence @  PC=0x430 (_1.ptx:252) bra.uni $Lt_1_5634;
GPGPU-Sim PTX:    immediate post dominator      @  PC=0x440 (_1.ptx:256) div.s32 %r21, %r6, %r15;
GPGPU-Sim PTX:  4 (potential) branch divergence @  PC=0x460 (_1.ptx:260) @%p3 bra $Lt_1_6402;
GPGPU-Sim PTX:    immediate post dominator      @  PC=0x490 (_1.ptx:270) mov.s32 %r27, %r26;
GPGPU-Sim PTX:  5 (potential) branch divergence @  PC=0x480 (_1.ptx:265) bra.uni $Lt_1_6146;
GPGPU-Sim PTX:    immediate post dominator      @  PC=0x490 (_1.ptx:270) mov.s32 %r27, %r26;
GPGPU-Sim PTX:  6 (potential) branch divergence @  PC=0x4b8 (_1.ptx:275) @%p4 bra $Lt_1_9218;
GPGPU-Sim PTX:    immediate post dominator      @  PC=0x650 (_1.ptx:336) st.global.f64 [%rd5+0], %fd1;
GPGPU-Sim PTX:  7 (potential) branch divergence @  PC=0x590 (_1.ptx:305) @!%p5 bra $Lt_1_7426;
GPGPU-Sim PTX:    immediate post dominator      @  PC=0x628 (_1.ptx:328) add.s32 %r27, %r27, 1;
GPGPU-Sim PTX:  8 (potential) branch divergence @  PC=0x620 (_1.ptx:326) @%p6 bra $Lt_1_7938;
GPGPU-Sim PTX:    immediate post dominator      @  PC=0x628 (_1.ptx:328) add.s32 %r27, %r27, 1;
GPGPU-Sim PTX:  9 (potential) branch divergence @  PC=0x638 (_1.ptx:330) @%p7 bra $Lt_1_7170;
GPGPU-Sim PTX:    immediate post dominator      @  PC=0x640 (_1.ptx:331) bra.uni $Lt_1_6658;
GPGPU-Sim PTX: 10 (potential) branch divergence @  PC=0x640 (_1.ptx:331) bra.uni $Lt_1_6658;
GPGPU-Sim PTX:    immediate post dominator      @  PC=0x650 (_1.ptx:336) st.global.f64 [%rd5+0], %fd1;
GPGPU-Sim PTX: 11 (potential) branch divergence @  PC=0x670 (_1.ptx:340) @%p8 bra $Lt_1_5378;
GPGPU-Sim PTX:    immediate post dominator      @  PC=0x678 (_1.ptx:343) exit;
GPGPU-Sim PTX: ... end of reconvergence points for _Z17col2im_gpu_kernelIdEviPKT_iiiiiiiiPS0_
GPGPU-Sim PTX: ... done pre-decoding instructions for '_Z17col2im_gpu_kernelIdEviPKT_iiiiiiiiPS0_'.
GPGPU-Sim PTX: finished parsing EMBEDDED .ptx file _1.ptx
Adding _cuobjdump_1.ptx with cubin handle 1
GPGPU-Sim PTX: extracting embedded .ptx to temporary file "_ptx_6npNnv"
Running: cat _ptx_6npNnv | sed 's/.version 1.5/.version 1.4/' | sed 's/, texmode_independent//' | sed 's/\(\.extern \.const\[1\] .b8 \w\+\)\[\]/\1\[1\]/' | sed 's/const\[.\]/const\[0\]/g' > _ptx2_rCdTaU
GPGPU-Sim PTX: generating ptxinfo using "$CUDA_INSTALL_PATH/bin/ptxas --gpu-name=sm_20 -v _ptx2_rCdTaU --output-file  /dev/null 2> _ptx_6npNnvinfo"
GPGPU-Sim PTX: Kernel '_Z17col2im_gpu_kernelIdEviPKT_iiiiiiiiPS0_' : regs=23, lmem=0, smem=0, cmem=88
GPGPU-Sim PTX: Kernel '_Z17col2im_gpu_kernelIfEviPKT_iiiiiiiiPS0_' : regs=21, lmem=0, smem=0, cmem=88
GPGPU-Sim PTX: removing ptxinfo using "rm -f _ptx_6npNnv _ptx2_rCdTaU _ptx_6npNnvinfo"
GPGPU-Sim PTX: loading globals with explicit initializers... 
GPGPU-Sim PTX: finished loading globals (0 bytes total).
GPGPU-Sim PTX: loading constants with explicit initializers...  done.
GPGPU-Sim PTX: __cudaRegisterFunction _Z17col2im_gpu_kernelIfEviPKT_iiiiiiiiPS0_ : hostFun 0x0x4015c0, fat_cubin_handle = 1
GPGPU-Sim PTX: __cudaRegisterFatBinary, fat_cubin_handle = 2, filename=/home/bing/cu_learn/im2col/src/cuda_conv.cu
GPGPU-Sim PTX: __cudaRegisterFatBinary, fat_cubin_handle = 3, filename=/home/bing/cu_learn/im2col/src/fc.cu
GPGPU-Sim PTX: __cudaRegisterFunction _Z13fc_gpu_kernelPfS_S_S_ii : hostFun 0x0x401e80, fat_cubin_handle = 3
GPGPU-Sim PTX: instruction assembly for function '_Z13fc_gpu_kernelPfS_S_S_ii'...   done.
GPGPU-Sim PTX: finding reconvergence points for '_Z13fc_gpu_kernelPfS_S_S_ii'...
GPGPU-Sim PTX: Finding dominators for '_Z13fc_gpu_kernelPfS_S_S_ii'...
GPGPU-Sim PTX: Finding immediate dominators for '_Z13fc_gpu_kernelPfS_S_S_ii'...
GPGPU-Sim PTX: Finding postdominators for '_Z13fc_gpu_kernelPfS_S_S_ii'...
GPGPU-Sim PTX: Finding immediate postdominators for '_Z13fc_gpu_kernelPfS_S_S_ii'...
GPGPU-Sim PTX: pre-decoding instructions for '_Z13fc_gpu_kernelPfS_S_S_ii'...
GPGPU-Sim PTX: reconvergence points for _Z13fc_gpu_kernelPfS_S_S_ii...
GPGPU-Sim PTX:  1 (potential) branch divergence @  PC=0x698 (_3.ptx:68) @%p1 bra $Lt_0_2306;
GPGPU-Sim PTX:    immediate post dominator      @  PC=0x7d0 (_3.ptx:117) exit;
GPGPU-Sim PTX:  2 (potential) branch divergence @  PC=0x6e0 (_3.ptx:79) @!%p2 bra $Lt_0_4610;
GPGPU-Sim PTX:    immediate post dominator      @  PC=0x790 (_3.ptx:107) ld.global.f32 %f4, [%rd1+0];
GPGPU-Sim PTX:  3 (potential) branch divergence @  PC=0x778 (_3.ptx:101) @%p3 bra $Lt_0_3586;
GPGPU-Sim PTX:    immediate post dominator      @  PC=0x780 (_3.ptx:102) bra.uni $Lt_0_3074;
GPGPU-Sim PTX:  4 (potential) branch divergence @  PC=0x780 (_3.ptx:102) bra.uni $Lt_0_3074;
GPGPU-Sim PTX:    immediate post dominator      @  PC=0x790 (_3.ptx:107) ld.global.f32 %f4, [%rd1+0];
GPGPU-Sim PTX:  5 (potential) branch divergence @  PC=0x7c8 (_3.ptx:114) @%p4 bra $Lt_0_2818;
GPGPU-Sim PTX:    immediate post dominator      @  PC=0x7d0 (_3.ptx:117) exit;
GPGPU-Sim PTX: ... end of reconvergence points for _Z13fc_gpu_kernelPfS_S_S_ii
GPGPU-Sim PTX: ... done pre-decoding instructions for '_Z13fc_gpu_kernelPfS_S_S_ii'.
GPGPU-Sim PTX: finished parsing EMBEDDED .ptx file _3.ptx
Adding _cuobjdump_3.ptx with cubin handle 3
GPGPU-Sim PTX: extracting embedded .ptx to temporary file "_ptx_Uhcaqj"
Running: cat _ptx_Uhcaqj | sed 's/.version 1.5/.version 1.4/' | sed 's/, texmode_independent//' | sed 's/\(\.extern \.const\[1\] .b8 \w\+\)\[\]/\1\[1\]/' | sed 's/const\[.\]/const\[0\]/g' > _ptx2_86euFI
GPGPU-Sim PTX: generating ptxinfo using "$CUDA_INSTALL_PATH/bin/ptxas --gpu-name=sm_20 -v _ptx2_86euFI --output-file  /dev/null 2> _ptx_Uhcaqjinfo"
GPGPU-Sim PTX: Kernel '_Z13fc_gpu_kernelPfS_S_S_ii' : regs=16, lmem=0, smem=0, cmem=72
GPGPU-Sim PTX: removing ptxinfo using "rm -f _ptx_Uhcaqj _ptx2_86euFI _ptx_Uhcaqjinfo"
GPGPU-Sim PTX: loading globals with explicit initializers... 
GPGPU-Sim PTX: finished loading globals (0 bytes total).
GPGPU-Sim PTX: loading constants with explicit initializers...  done.
GPGPU-Sim PTX: __cudaRegisterFatBinary, fat_cubin_handle = 4, filename=/home/bing/cu_learn/im2col/src/im2col.cu
GPGPU-Sim PTX: __cudaRegisterFunction _Z17im2col_gpu_kernelIdEviPKT_iiiiiiiPS0_ : hostFun 0x0x4029e0, fat_cubin_handle = 4
GPGPU-Sim PTX: instruction assembly for function '_Z17im2col_gpu_kernelIfEviPKT_iiiiiiiPS0_'...   done.
GPGPU-Sim PTX: finding reconvergence points for '_Z17im2col_gpu_kernelIfEviPKT_iiiiiiiPS0_'...
GPGPU-Sim PTX: Finding dominators for '_Z17im2col_gpu_kernelIfEviPKT_iiiiiiiPS0_'...
GPGPU-Sim PTX: Finding immediate dominators for '_Z17im2col_gpu_kernelIfEviPKT_iiiiiiiPS0_'...
GPGPU-Sim PTX: Finding postdominators for '_Z17im2col_gpu_kernelIfEviPKT_iiiiiiiPS0_'...
GPGPU-Sim PTX: Finding immediate postdominators for '_Z17im2col_gpu_kernelIfEviPKT_iiiiiiiPS0_'...
GPGPU-Sim PTX: pre-decoding instructions for '_Z17im2col_gpu_kernelIfEviPKT_iiiiiiiPS0_'...
GPGPU-Sim PTX: reconvergence points for _Z17im2col_gpu_kernelIfEviPKT_iiiiiiiPS0_...
GPGPU-Sim PTX:  1 (potential) branch divergence @  PC=0x818 (_4.ptx:78) @%p1 bra $Lt_0_6146;
GPGPU-Sim PTX:    immediate post dominator      @  PC=0xab8 (_4.ptx:177) exit;
GPGPU-Sim PTX:  2 (potential) branch divergence @  PC=0x8c8 (_4.ptx:103) @!%p2 bra $Lt_0_6914;
GPGPU-Sim PTX:    immediate post dominator      @  PC=0xaa0 (_4.ptx:172) add.u32 %r6, %r6, %r11;
GPGPU-Sim PTX:  3 (potential) branch divergence @  PC=0x9c0 (_4.ptx:139) @!%p3 bra $Lt_0_10242;
GPGPU-Sim PTX:    immediate post dominator      @  PC=0xa48 (_4.ptx:160) st.global.f32 [%rd12+0], %f1;
GPGPU-Sim PTX:  4 (potential) branch divergence @  PC=0x9e0 (_4.ptx:143) @%p4 bra $Lt_0_10242;
GPGPU-Sim PTX:    immediate post dominator      @  PC=0xa48 (_4.ptx:160) st.global.f32 [%rd12+0], %f1;
GPGPU-Sim PTX:  5 (potential) branch divergence @  PC=0x9f0 (_4.ptx:145) @%p5 bra $Lt_0_10242;
GPGPU-Sim PTX:    immediate post dominator      @  PC=0xa48 (_4.ptx:160) st.global.f32 [%rd12+0], %f1;
GPGPU-Sim PTX:  6 (potential) branch divergence @  PC=0xa00 (_4.ptx:147) @%p6 bra $Lt_0_10242;
GPGPU-Sim PTX:    immediate post dominator      @  PC=0xa48 (_4.ptx:160) st.global.f32 [%rd12+0], %f1;
GPGPU-Sim PTX:  7 (potential) branch divergence @  PC=0xa38 (_4.ptx:155) bra.uni $L_0_4866;
GPGPU-Sim PTX:    immediate post dominator      @  PC=0xa48 (_4.ptx:160) st.global.f32 [%rd12+0], %f1;
GPGPU-Sim PTX:  8 (potential) branch divergence @  PC=0xa68 (_4.ptx:164) @%p7 bra $Lt_0_8194;
GPGPU-Sim PTX:    immediate post dominator      @  PC=0xa70 (_4.ptx:165) mul.lo.u64 %rd16, %rd10, %rd9;
GPGPU-Sim PTX:  9 (potential) branch divergence @  PC=0xa98 (_4.ptx:170) @%p8 bra $Lt_0_7426;
GPGPU-Sim PTX:    immediate post dominator      @  PC=0xaa0 (_4.ptx:172) add.u32 %r6, %r6, %r11;
GPGPU-Sim PTX: 10 (potential) branch divergence @  PC=0xab0 (_4.ptx:174) @%p9 bra $Lt_0_6658;
GPGPU-Sim PTX:    immediate post dominator      @  PC=0xab8 (_4.ptx:177) exit;
GPGPU-Sim PTX: ... end of reconvergence points for _Z17im2col_gpu_kernelIfEviPKT_iiiiiiiPS0_
GPGPU-Sim PTX: ... done pre-decoding instructions for '_Z17im2col_gpu_kernelIfEviPKT_iiiiiiiPS0_'.
GPGPU-Sim PTX: instruction assembly for function '_Z17im2col_gpu_kernelIdEviPKT_iiiiiiiPS0_'...   done.
GPGPU-Sim PTX: finding reconvergence points for '_Z17im2col_gpu_kernelIdEviPKT_iiiiiiiPS0_'...
GPGPU-Sim PTX: Finding dominators for '_Z17im2col_gpu_kernelIdEviPKT_iiiiiiiPS0_'...
GPGPU-Sim PTX: Finding immediate dominators for '_Z17im2col_gpu_kernelIdEviPKT_iiiiiiiPS0_'...
GPGPU-Sim PTX: Finding postdominators for '_Z17im2col_gpu_kernelIdEviPKT_iiiiiiiPS0_'...
GPGPU-Sim PTX: Finding immediate postdominators for '_Z17im2col_gpu_kernelIdEviPKT_iiiiiiiPS0_'...
GPGPU-Sim PTX: pre-decoding instructions for '_Z17im2col_gpu_kernelIdEviPKT_iiiiiiiPS0_'...
GPGPU-Sim PTX: reconvergence points for _Z17im2col_gpu_kernelIdEviPKT_iiiiiiiPS0_...
GPGPU-Sim PTX:  1 (potential) branch divergence @  PC=0xb00 (_4.ptx:208) @%p1 bra $Lt_1_6146;
GPGPU-Sim PTX:    immediate post dominator      @  PC=0xda0 (_4.ptx:307) exit;
GPGPU-Sim PTX:  2 (potential) branch divergence @  PC=0xbb0 (_4.ptx:233) @!%p2 bra $Lt_1_6914;
GPGPU-Sim PTX:    immediate post dominator      @  PC=0xd88 (_4.ptx:302) add.u32 %r6, %r6, %r11;
GPGPU-Sim PTX:  3 (potential) branch divergence @  PC=0xca8 (_4.ptx:269) @!%p3 bra $Lt_1_10242;
GPGPU-Sim PTX:    immediate post dominator      @  PC=0xd30 (_4.ptx:290) st.global.f64 [%rd12+0], %fd1;
GPGPU-Sim PTX:  4 (potential) branch divergence @  PC=0xcc8 (_4.ptx:273) @%p4 bra $Lt_1_10242;
GPGPU-Sim PTX:    immediate post dominator      @  PC=0xd30 (_4.ptx:290) st.global.f64 [%rd12+0], %fd1;
GPGPU-Sim PTX:  5 (potential) branch divergence @  PC=0xcd8 (_4.ptx:275) @%p5 bra $Lt_1_10242;
GPGPU-Sim PTX:    immediate post dominator      @  PC=0xd30 (_4.ptx:290) st.global.f64 [%rd12+0], %fd1;
GPGPU-Sim PTX:  6 (potential) branch divergence @  PC=0xce8 (_4.ptx:277) @%p6 bra $Lt_1_10242;
GPGPU-Sim PTX:    immediate post dominator      @  PC=0xd30 (_4.ptx:290) st.global.f64 [%rd12+0], %fd1;
GPGPU-Sim PTX:  7 (potential) branch divergence @  PC=0xd20 (_4.ptx:285) bra.uni $L_1_4866;
GPGPU-Sim PTX:    immediate post dominator      @  PC=0xd30 (_4.ptx:290) st.global.f64 [%rd12+0], %fd1;
GPGPU-Sim PTX:  8 (potential) branch divergence @  PC=0xd50 (_4.ptx:294) @%p7 bra $Lt_1_8194;
GPGPU-Sim PTX:    immediate post dominator      @  PC=0xd58 (_4.ptx:295) mul.lo.u64 %rd16, %rd10, %rd9;
GPGPU-Sim PTX:  9 (potential) branch divergence @  PC=0xd80 (_4.ptx:300) @%p8 bra $Lt_1_7426;
GPGPU-Sim PTX:    immediate post dominator      @  PC=0xd88 (_4.ptx:302) add.u32 %r6, %r6, %r11;
GPGPU-Sim PTX: 10 (potential) branch divergence @  PC=0xd98 (_4.ptx:304) @%p9 bra $Lt_1_6658;
GPGPU-Sim PTX:    immediate post dominator      @  PC=0xda0 (_4.ptx:307) exit;
GPGPU-Sim PTX: ... end of reconvergence points for _Z17im2col_gpu_kernelIdEviPKT_iiiiiiiPS0_
GPGPU-Sim PTX: ... done pre-decoding instructions for '_Z17im2col_gpu_kernelIdEviPKT_iiiiiiiPS0_'.
GPGPU-Sim PTX: finished parsing EMBEDDED .ptx file _4.ptx
Adding _cuobjdump_4.ptx with cubin handle 4
GPGPU-Sim PTX: extracting embedded .ptx to temporary file "_ptx_ZwFA67"
Running: cat _ptx_ZwFA67 | sed 's/.version 1.5/.version 1.4/' | sed 's/, texmode_independent//' | sed 's/\(\.extern \.const\[1\] .b8 \w\+\)\[\]/\1\[1\]/' | sed 's/const\[.\]/const\[0\]/g' > _ptx2_i1hKxx
GPGPU-Sim PTX: generating ptxinfo using "$CUDA_INSTALL_PATH/bin/ptxas --gpu-name=sm_20 -v _ptx2_i1hKxx --output-file  /dev/null 2> _ptx_ZwFA67info"
GPGPU-Sim PTX: Kernel '_Z17im2col_gpu_kernelIdEviPKT_iiiiiiiPS0_' : regs=23, lmem=0, smem=0, cmem=88
GPGPU-Sim PTX: Kernel '_Z17im2col_gpu_kernelIfEviPKT_iiiiiiiPS0_' : regs=21, lmem=0, smem=0, cmem=88
GPGPU-Sim PTX: removing ptxinfo using "rm -f _ptx_ZwFA67 _ptx2_i1hKxx _ptx_ZwFA67info"
GPGPU-Sim PTX: loading globals with explicit initializers... 
GPGPU-Sim PTX: finished loading globals (0 bytes total).
GPGPU-Sim PTX: loading constants with explicit initializers...  done.
GPGPU-Sim PTX: __cudaRegisterFunction _Z17im2col_gpu_kernelIfEviPKT_iiiiiiiPS0_ : hostFun 0x0x4029f0, fat_cubin_handle = 4

GPGPU-Sim PTX: cudaLaunch for 0x0x4029f0 (mode=performance simulation) on stream 0
GPGPU-Sim PTX: pushing kernel '_Z17im2col_gpu_kernelIfEviPKT_iiiiiiiPS0_' to stream 0, gridDim= (384,1,1) blockDim = (512,1,1) 
kernel '_Z17im2col_gpu_kernelIfEviPKT_iiiiiiiPS0_' transfer to GPU hardware scheduler
GPGPU-Sim uArch: Shader 1 bind to kernel 1 '_Z17im2col_gpu_kernelIfEviPKT_iiiiiiiPS0_'
GPGPU-Sim uArch: CTA/core = 2, limited by: regs
GPGPU-Sim uArch: core:  1, cta: 0 initialized @(1,0)
GPGPU-Sim uArch: Shader 2 bind to kernel 1 '_Z17im2col_gpu_kernelIfEviPKT_iiiiiiiPS0_'
GPGPU-Sim uArch: core:  2, cta: 0 initialized @(1,0)
GPGPU-Sim uArch: Shader 3 bind to kernel 1 '_Z17im2col_gpu_kernelIfEviPKT_iiiiiiiPS0_'
GPGPU-Sim uArch: core:  3, cta: 0 initialized @(1,0)
GPGPU-Sim uArch: Shader 4 bind to kernel 1 '_Z17im2col_gpu_kernelIfEviPKT_iiiiiiiPS0_'
GPGPU-Sim uArch: core:  4, cta: 0 initialized @(1,0)
GPGPU-Sim uArch: Shader 5 bind to kernel 1 '_Z17im2col_gpu_kernelIfEviPKT_iiiiiiiPS0_'
GPGPU-Sim uArch: core:  5, cta: 0 initialized @(1,0)
GPGPU-Sim uArch: Shader 6 bind to kernel 1 '_Z17im2col_gpu_kernelIfEviPKT_iiiiiiiPS0_'
GPGPU-Sim uArch: core:  6, cta: 0 initialized @(1,0)
GPGPU-Sim uArch: Shader 7 bind to kernel 1 '_Z17im2col_gpu_kernelIfEviPKT_iiiiiiiPS0_'
GPGPU-Sim uArch: core:  7, cta: 0 initialized @(1,0)
GPGPU-Sim uArch: Shader 8 bind to kernel 1 '_Z17im2col_gpu_kernelIfEviPKT_iiiiiiiPS0_'
GPGPU-Sim uArch: core:  8, cta: 0 initialized @(1,0)
GPGPU-Sim uArch: Shader 9 bind to kernel 1 '_Z17im2col_gpu_kernelIfEviPKT_iiiiiiiPS0_'
GPGPU-Sim uArch: core:  9, cta: 0 initialized @(1,0)
GPGPU-Sim uArch: Shader 10 bind to kernel 1 '_Z17im2col_gpu_kernelIfEviPKT_iiiiiiiPS0_'
GPGPU-Sim uArch: core: 10, cta: 0 initialized @(1,0)
GPGPU-Sim uArch: Shader 11 bind to kernel 1 '_Z17im2col_gpu_kernelIfEviPKT_iiiiiiiPS0_'
GPGPU-Sim uArch: core: 11, cta: 0 initialized @(1,0)
GPGPU-Sim uArch: Shader 12 bind to kernel 1 '_Z17im2col_gpu_kernelIfEviPKT_iiiiiiiPS0_'
GPGPU-Sim uArch: core: 12, cta: 0 initialized @(1,0)
GPGPU-Sim uArch: Shader 13 bind to kernel 1 '_Z17im2col_gpu_kernelIfEviPKT_iiiiiiiPS0_'
GPGPU-Sim uArch: core: 13, cta: 0 initialized @(1,0)
GPGPU-Sim uArch: Shader 14 bind to kernel 1 '_Z17im2col_gpu_kernelIfEviPKT_iiiiiiiPS0_'
GPGPU-Sim uArch: core: 14, cta: 0 initialized @(1,0)
GPGPU-Sim uArch: Shader 0 bind to kernel 1 '_Z17im2col_gpu_kernelIfEviPKT_iiiiiiiPS0_'
GPGPU-Sim uArch: core:  0, cta: 0 initialized @(1,0)
GPGPU-Sim uArch: core:  1, cta: 1 initialized @(2,0)
GPGPU-Sim uArch: core:  2, cta: 1 initialized @(2,0)
GPGPU-Sim uArch: core:  3, cta: 1 initialized @(2,0)
GPGPU-Sim uArch: core:  4, cta: 1 initialized @(2,0)
GPGPU-Sim uArch: core:  5, cta: 1 initialized @(2,0)
GPGPU-Sim uArch: core:  6, cta: 1 initialized @(2,0)
GPGPU-Sim uArch: core:  7, cta: 1 initialized @(2,0)
GPGPU-Sim uArch: core:  8, cta: 1 initialized @(2,0)
GPGPU-Sim uArch: core:  9, cta: 1 initialized @(2,0)
GPGPU-Sim uArch: core: 10, cta: 1 initialized @(2,0)
GPGPU-Sim uArch: core: 11, cta: 1 initialized @(2,0)
GPGPU-Sim uArch: core: 12, cta: 1 initialized @(2,0)
GPGPU-Sim uArch: core: 13, cta: 1 initialized @(2,0)
GPGPU-Sim uArch: core: 14, cta: 1 initialized @(2,0)
GPGPU-Sim uArch: core:  0, cta: 1 initialized @(2,0)
GPGPU-Sim uArch: cycles simulated: 500  inst.: 92160 (ipc=184.3) sim_rate=92160 (inst/sec) elapsed = 0:0:00:01 / Sun Jul 15 15:16:03 2018
GPGPU-Sim PTX: 100000 instructions simulated : ctaid=(8,0,0) tid=(191,0,0)
GPGPU-Sim PTX: 200000 instructions simulated : ctaid=(11,0,0) tid=(479,0,0)
GPGPU-Sim PTX: 300000 instructions simulated : ctaid=(22,0,0) tid=(127,0,0)
GPGPU-Sim uArch: cycles simulated: 1500  inst.: 297824 (ipc=198.5) sim_rate=148912 (inst/sec) elapsed = 0:0:00:02 / Sun Jul 15 15:16:04 2018
GPGPU-Sim PTX: 400000 instructions simulated : ctaid=(27,0,0) tid=(223,0,0)
GPGPU-Sim PTX: 500000 instructions simulated : ctaid=(12,0,0) tid=(447,0,0)
GPGPU-Sim PTX: 600000 instructions simulated : ctaid=(4,0,0) tid=(511,0,0)
GPGPU-Sim PTX: 700000 instructions simulated : ctaid=(10,0,0) tid=(351,0,0)
GPGPU-Sim PTX: 800000 instructions simulated : ctaid=(18,0,0) tid=(383,0,0)
GPGPU-Sim uArch: cycles simulated: 2500  inst.: 813504 (ipc=325.4) sim_rate=271168 (inst/sec) elapsed = 0:0:00:03 / Sun Jul 15 15:16:05 2018
GPGPU-Sim PTX: 900000 instructions simulated : ctaid=(4,0,0) tid=(223,0,0)
GPGPU-Sim PTX: 1000000 instructions simulated : ctaid=(21,0,0) tid=(447,0,0)
GPGPU-Sim PTX: 1100000 instructions simulated : ctaid=(27,0,0) tid=(135,0,0)
GPGPU-Sim PTX: 1200000 instructions simulated : ctaid=(0,0,0) tid=(262,0,0)
GPGPU-Sim PTX: 1300000 instructions simulated : ctaid=(2,0,0) tid=(82,0,0)
GPGPU-Sim PTX: 1400000 instructions simulated : ctaid=(10,0,0) tid=(100,0,0)
GPGPU-Sim uArch: cycles simulated: 3500  inst.: 1262371 (ipc=360.7) sim_rate=315592 (inst/sec) elapsed = 0:0:00:04 / Sun Jul 15 15:16:06 2018
GPGPU-Sim PTX: 1500000 instructions simulated : ctaid=(11,0,0) tid=(53,0,0)
GPGPU-Sim PTX: 1600000 instructions simulated : ctaid=(28,0,0) tid=(373,0,0)
GPGPU-Sim PTX: 1700000 instructions simulated : ctaid=(3,0,0) tid=(225,0,0)
GPGPU-Sim PTX: 1800000 instructions simulated : ctaid=(9,0,0) tid=(169,0,0)
GPGPU-Sim uArch: cycles simulated: 4500  inst.: 1593624 (ipc=354.1) sim_rate=318724 (inst/sec) elapsed = 0:0:00:05 / Sun Jul 15 15:16:07 2018
GPGPU-Sim PTX: 1900000 instructions simulated : ctaid=(18,0,0) tid=(88,0,0)
GPGPU-Sim PTX: 2000000 instructions simulated : ctaid=(11,0,0) tid=(267,0,0)
GPGPU-Sim PTX: 2100000 instructions simulated : ctaid=(26,0,0) tid=(179,0,0)
GPGPU-Sim PTX: 2200000 instructions simulated : ctaid=(7,0,0) tid=(116,0,0)
GPGPU-Sim uArch: cycles simulated: 5500  inst.: 1964221 (ipc=357.1) sim_rate=327370 (inst/sec) elapsed = 0:0:00:06 / Sun Jul 15 15:16:08 2018
GPGPU-Sim PTX: 2300000 instructions simulated : ctaid=(8,0,0) tid=(39,0,0)
GPGPU-Sim PTX: 2400000 instructions simulated : ctaid=(13,0,0) tid=(406,0,0)
GPGPU-Sim PTX: 2500000 instructions simulated : ctaid=(2,0,0) tid=(194,0,0)
GPGPU-Sim PTX: 2600000 instructions simulated : ctaid=(14,0,0) tid=(184,0,0)
GPGPU-Sim PTX: 2700000 instructions simulated : ctaid=(13,0,0) tid=(70,0,0)
GPGPU-Sim PTX: 2800000 instructions simulated : ctaid=(27,0,0) tid=(119,0,0)
GPGPU-Sim uArch: cycles simulated: 7000  inst.: 2489145 (ipc=355.6) sim_rate=355592 (inst/sec) elapsed = 0:0:00:07 / Sun Jul 15 15:16:09 2018
GPGPU-Sim PTX: 2900000 instructions simulated : ctaid=(10,0,0) tid=(228,0,0)
GPGPU-Sim PTX: 3000000 instructions simulated : ctaid=(20,0,0) tid=(2,0,0)
GPGPU-Sim PTX: 3100000 instructions simulated : ctaid=(9,0,0) tid=(15,0,0)
GPGPU-Sim PTX: 3200000 instructions simulated : ctaid=(6,0,0) tid=(130,0,0)
GPGPU-Sim PTX: 3300000 instructions simulated : ctaid=(1,0,0) tid=(162,0,0)
GPGPU-Sim uArch: cycles simulated: 8000  inst.: 2827978 (ipc=353.5) sim_rate=353497 (inst/sec) elapsed = 0:0:00:08 / Sun Jul 15 15:16:10 2018
GPGPU-Sim PTX: 3400000 instructions simulated : ctaid=(11,0,0) tid=(317,0,0)
GPGPU-Sim PTX: 3500000 instructions simulated : ctaid=(7,0,0) tid=(397,0,0)
GPGPU-Sim PTX: 3600000 instructions simulated : ctaid=(9,0,0) tid=(175,0,0)
GPGPU-Sim PTX: 3700000 instructions simulated : ctaid=(5,0,0) tid=(219,0,0)
GPGPU-Sim uArch: cycles simulated: 9000  inst.: 3208678 (ipc=356.5) sim_rate=356519 (inst/sec) elapsed = 0:0:00:09 / Sun Jul 15 15:16:11 2018
GPGPU-Sim PTX: 3800000 instructions simulated : ctaid=(10,0,0) tid=(164,0,0)
GPGPU-Sim PTX: 3900000 instructions simulated : ctaid=(3,0,0) tid=(69,0,0)
GPGPU-Sim PTX: 4000000 instructions simulated : ctaid=(6,0,0) tid=(12,0,0)
GPGPU-Sim PTX: 4100000 instructions simulated : ctaid=(4,0,0) tid=(137,0,0)
GPGPU-Sim uArch: cycles simulated: 10000  inst.: 3531897 (ipc=353.2) sim_rate=353189 (inst/sec) elapsed = 0:0:00:10 / Sun Jul 15 15:16:12 2018
GPGPU-Sim PTX: 4200000 instructions simulated : ctaid=(9,0,0) tid=(168,0,0)
GPGPU-Sim PTX: 4300000 instructions simulated : ctaid=(29,0,0) tid=(243,0,0)
GPGPU-Sim PTX: 4400000 instructions simulated : ctaid=(0,0,0) tid=(239,0,0)
GPGPU-Sim PTX: 4500000 instructions simulated : ctaid=(14,0,0) tid=(114,0,0)
GPGPU-Sim PTX: 4600000 instructions simulated : ctaid=(21,0,0) tid=(233,0,0)
GPGPU-Sim uArch: cycles simulated: 11000  inst.: 3896581 (ipc=354.2) sim_rate=354234 (inst/sec) elapsed = 0:0:00:11 / Sun Jul 15 15:16:13 2018
GPGPU-Sim PTX: 4700000 instructions simulated : ctaid=(20,0,0) tid=(104,0,0)
GPGPU-Sim PTX: 4800000 instructions simulated : ctaid=(13,0,0) tid=(120,0,0)
GPGPU-Sim PTX: 4900000 instructions simulated : ctaid=(3,0,0) tid=(127,0,0)
GPGPU-Sim PTX: 5000000 instructions simulated : ctaid=(0,0,0) tid=(477,0,0)
GPGPU-Sim uArch: cycles simulated: 12000  inst.: 4253301 (ipc=354.4) sim_rate=354441 (inst/sec) elapsed = 0:0:00:12 / Sun Jul 15 15:16:14 2018
GPGPU-Sim PTX: 5100000 instructions simulated : ctaid=(1,0,0) tid=(174,0,0)
GPGPU-Sim PTX: 5200000 instructions simulated : ctaid=(15,0,0) tid=(246,0,0)
GPGPU-Sim PTX: 5300000 instructions simulated : ctaid=(13,0,0) tid=(167,0,0)
GPGPU-Sim PTX: 5400000 instructions simulated : ctaid=(11,0,0) tid=(110,0,0)
GPGPU-Sim uArch: cycles simulated: 13000  inst.: 4621021 (ipc=355.5) sim_rate=355463 (inst/sec) elapsed = 0:0:00:13 / Sun Jul 15 15:16:15 2018
GPGPU-Sim PTX: 5500000 instructions simulated : ctaid=(10,0,0) tid=(215,0,0)
GPGPU-Sim PTX: 5600000 instructions simulated : ctaid=(17,0,0) tid=(338,0,0)
GPGPU-Sim PTX: 5700000 instructions simulated : ctaid=(24,0,0) tid=(263,0,0)
GPGPU-Sim PTX: 5800000 instructions simulated : ctaid=(28,0,0) tid=(114,0,0)
GPGPU-Sim PTX: 5900000 instructions simulated : ctaid=(23,0,0) tid=(212,0,0)
GPGPU-Sim uArch: cycles simulated: 14000  inst.: 4999845 (ipc=357.1) sim_rate=357131 (inst/sec) elapsed = 0:0:00:14 / Sun Jul 15 15:16:16 2018
GPGPU-Sim PTX: 6000000 instructions simulated : ctaid=(25,0,0) tid=(407,0,0)
GPGPU-Sim PTX: 6100000 instructions simulated : ctaid=(11,0,0) tid=(306,0,0)
GPGPU-Sim PTX: 6200000 instructions simulated : ctaid=(29,0,0) tid=(504,0,0)
GPGPU-Sim PTX: 6300000 instructions simulated : ctaid=(4,0,0) tid=(492,0,0)
GPGPU-Sim PTX: 6400000 instructions simulated : ctaid=(24,0,0) tid=(385,0,0)
GPGPU-Sim uArch: cycles simulated: 15000  inst.: 5374090 (ipc=358.3) sim_rate=358272 (inst/sec) elapsed = 0:0:00:15 / Sun Jul 15 15:16:17 2018
GPGPU-Sim PTX: 6500000 instructions simulated : ctaid=(15,0,0) tid=(295,0,0)
GPGPU-Sim PTX: 6600000 instructions simulated : ctaid=(11,0,0) tid=(253,0,0)
GPGPU-Sim PTX: 6700000 instructions simulated : ctaid=(22,0,0) tid=(23,0,0)
GPGPU-Sim PTX: 6800000 instructions simulated : ctaid=(23,0,0) tid=(176,0,0)
GPGPU-Sim uArch: cycles simulated: 16000  inst.: 5756782 (ipc=359.8) sim_rate=359798 (inst/sec) elapsed = 0:0:00:16 / Sun Jul 15 15:16:18 2018
GPGPU-Sim PTX: 6900000 instructions simulated : ctaid=(17,0,0) tid=(411,0,0)
GPGPU-Sim PTX: 7000000 instructions simulated : ctaid=(22,0,0) tid=(227,0,0)
GPGPU-Sim PTX: 7100000 instructions simulated : ctaid=(22,0,0) tid=(5,0,0)
GPGPU-Sim PTX: 7200000 instructions simulated : ctaid=(25,0,0) tid=(64,0,0)
GPGPU-Sim uArch: Shader 3 finished CTA #0 (16788,0), 1 CTAs running
GPGPU-Sim uArch: core:  3, cta: 0 initialized @(16789,0)
GPGPU-Sim PTX: 7300000 instructions simulated : ctaid=(8,0,0) tid=(373,0,0)
GPGPU-Sim uArch: Shader 1 finished CTA #0 (16968,0), 1 CTAs running
GPGPU-Sim uArch: core:  1, cta: 0 initialized @(16969,0)
GPGPU-Sim uArch: cycles simulated: 17000  inst.: 6149139 (ipc=361.7) sim_rate=361714 (inst/sec) elapsed = 0:0:00:17 / Sun Jul 15 15:16:19 2018
GPGPU-Sim PTX: 7400000 instructions simulated : ctaid=(18,0,0) tid=(89,0,0)
GPGPU-Sim uArch: Shader 14 finished CTA #0 (17325,0), 1 CTAs running
GPGPU-Sim uArch: core: 14, cta: 0 initialized @(17326,0)
GPGPU-Sim PTX: 7500000 instructions simulated : ctaid=(17,0,0) tid=(118,0,0)
GPGPU-Sim PTX: 7600000 instructions simulated : ctaid=(24,0,0) tid=(292,0,0)
GPGPU-Sim uArch: Shader 13 finished CTA #0 (17744,0), 1 CTAs running
GPGPU-Sim uArch: core: 13, cta: 0 initialized @(17745,0)
GPGPU-Sim PTX: 7700000 instructions simulated : ctaid=(29,0,0) tid=(121,0,0)
GPGPU-Sim uArch: cycles simulated: 18000  inst.: 6498769 (ipc=361.0) sim_rate=361042 (inst/sec) elapsed = 0:0:00:18 / Sun Jul 15 15:16:20 2018
GPGPU-Sim uArch: Shader 10 finished CTA #0 (18005,0), 1 CTAs running
GPGPU-Sim uArch: core: 10, cta: 0 initialized @(18006,0)
GPGPU-Sim uArch: Shader 5 finished CTA #0 (18035,0), 1 CTAs running
GPGPU-Sim uArch: core:  5, cta: 0 initialized @(18036,0)
GPGPU-Sim uArch: Shader 8 finished CTA #0 (18039,0), 1 CTAs running
GPGPU-Sim uArch: core:  8, cta: 0 initialized @(18040,0)
GPGPU-Sim PTX: 7800000 instructions simulated : ctaid=(10,0,0) tid=(427,0,0)
GPGPU-Sim PTX: 7900000 instructions simulated : ctaid=(25,0,0) tid=(354,0,0)
GPGPU-Sim uArch: Shader 4 finished CTA #0 (18322,0), 1 CTAs running
GPGPU-Sim uArch: core:  4, cta: 0 initialized @(18323,0)
GPGPU-Sim PTX: 8000000 instructions simulated : ctaid=(28,0,0) tid=(497,0,0)
GPGPU-Sim uArch: cycles simulated: 18500  inst.: 6709006 (ipc=362.6) sim_rate=353105 (inst/sec) elapsed = 0:0:00:19 / Sun Jul 15 15:16:21 2018
GPGPU-Sim PTX: 8100000 instructions simulated : ctaid=(18,0,0) tid=(295,0,0)
GPGPU-Sim PTX: 8200000 instructions simulated : ctaid=(28,0,0) tid=(454,0,0)
GPGPU-Sim PTX: 8300000 instructions simulated : ctaid=(25,0,0) tid=(99,0,0)
GPGPU-Sim uArch: Shader 6 finished CTA #0 (19178,0), 1 CTAs running
GPGPU-Sim uArch: core:  6, cta: 0 initialized @(19179,0)
GPGPU-Sim uArch: Shader 0 finished CTA #0 (19179,0), 1 CTAs running
GPGPU-Sim uArch: core:  0, cta: 0 initialized @(19180,0)
GPGPU-Sim uArch: Shader 7 finished CTA #0 (19294,0), 1 CTAs running
GPGPU-Sim uArch: core:  7, cta: 0 initialized @(19295,0)
GPGPU-Sim PTX: 8400000 instructions simulated : ctaid=(30,0,0) tid=(334,0,0)
GPGPU-Sim PTX: 8500000 instructions simulated : ctaid=(17,0,0) tid=(464,0,0)
GPGPU-Sim uArch: cycles simulated: 19500  inst.: 7122134 (ipc=365.2) sim_rate=356106 (inst/sec) elapsed = 0:0:00:20 / Sun Jul 15 15:16:22 2018
GPGPU-Sim uArch: Shader 2 finished CTA #0 (19503,0), 1 CTAs running
GPGPU-Sim uArch: core:  2, cta: 0 initialized @(19504,0)
GPGPU-Sim PTX: 8600000 instructions simulated : ctaid=(18,0,0) tid=(95,0,0)
GPGPU-Sim PTX: 8700000 instructions simulated : ctaid=(23,0,0) tid=(107,0,0)
GPGPU-Sim uArch: Shader 11 finished CTA #0 (19998,0), 1 CTAs running
GPGPU-Sim uArch: core: 11, cta: 0 initialized @(19999,0)
GPGPU-Sim PTX: 8800000 instructions simulated : ctaid=(39,0,0) tid=(370,0,0)
GPGPU-Sim uArch: Shader 12 finished CTA #0 (20186,0), 1 CTAs running
GPGPU-Sim uArch: core: 12, cta: 0 initialized @(20187,0)
GPGPU-Sim PTX: 8900000 instructions simulated : ctaid=(21,0,0) tid=(455,0,0)
GPGPU-Sim PTX: 9000000 instructions simulated : ctaid=(43,0,0) tid=(384,0,0)
GPGPU-Sim uArch: cycles simulated: 20500  inst.: 7585442 (ipc=370.0) sim_rate=361211 (inst/sec) elapsed = 0:0:00:21 / Sun Jul 15 15:16:23 2018
GPGPU-Sim PTX: 9100000 instructions simulated : ctaid=(40,0,0) tid=(194,0,0)
GPGPU-Sim uArch: Shader 9 finished CTA #0 (20578,0), 1 CTAs running
GPGPU-Sim uArch: core:  9, cta: 0 initialized @(20579,0)
GPGPU-Sim PTX: 9200000 instructions simulated : ctaid=(16,0,0) tid=(183,0,0)
GPGPU-Sim PTX: 9300000 instructions simulated : ctaid=(29,0,0) tid=(150,0,0)
GPGPU-Sim PTX: 9400000 instructions simulated : ctaid=(41,0,0) tid=(399,0,0)
GPGPU-Sim PTX: 9500000 instructions simulated : ctaid=(16,0,0) tid=(425,0,0)
GPGPU-Sim uArch: cycles simulated: 21500  inst.: 8020280 (ipc=373.0) sim_rate=364558 (inst/sec) elapsed = 0:0:00:22 / Sun Jul 15 15:16:24 2018
GPGPU-Sim PTX: 9600000 instructions simulated : ctaid=(17,0,0) tid=(230,0,0)
GPGPU-Sim PTX: 9700000 instructions simulated : ctaid=(26,0,0) tid=(327,0,0)
GPGPU-Sim PTX: 9800000 instructions simulated : ctaid=(42,0,0) tid=(161,0,0)
GPGPU-Sim uArch: cycles simulated: 22000  inst.: 8202945 (ipc=372.9) sim_rate=356649 (inst/sec) elapsed = 0:0:00:23 / Sun Jul 15 15:16:25 2018
GPGPU-Sim PTX: 9900000 instructions simulated : ctaid=(23,0,0) tid=(356,0,0)
GPGPU-Sim PTX: 10000000 instructions simulated : ctaid=(23,0,0) tid=(260,0,0)
GPGPU-Sim PTX: 10100000 instructions simulated : ctaid=(37,0,0) tid=(282,0,0)
GPGPU-Sim PTX: 10200000 instructions simulated : ctaid=(42,0,0) tid=(277,0,0)
GPGPU-Sim PTX: 10300000 instructions simulated : ctaid=(28,0,0) tid=(482,0,0)
GPGPU-Sim uArch: cycles simulated: 23000  inst.: 8644052 (ipc=375.8) sim_rate=360168 (inst/sec) elapsed = 0:0:00:24 / Sun Jul 15 15:16:26 2018
GPGPU-Sim PTX: 10400000 instructions simulated : ctaid=(32,0,0) tid=(279,0,0)
GPGPU-Sim PTX: 10500000 instructions simulated : ctaid=(44,0,0) tid=(281,0,0)
GPGPU-Sim PTX: 10600000 instructions simulated : ctaid=(20,0,0) tid=(466,0,0)
GPGPU-Sim PTX: 10700000 instructions simulated : ctaid=(42,0,0) tid=(19,0,0)
GPGPU-Sim PTX: 10800000 instructions simulated : ctaid=(23,0,0) tid=(371,0,0)
GPGPU-Sim uArch: cycles simulated: 24000  inst.: 9075552 (ipc=378.1) sim_rate=363022 (inst/sec) elapsed = 0:0:00:25 / Sun Jul 15 15:16:27 2018
GPGPU-Sim PTX: 10900000 instructions simulated : ctaid=(23,0,0) tid=(360,0,0)
GPGPU-Sim PTX: 11000000 instructions simulated : ctaid=(25,0,0) tid=(358,0,0)
GPGPU-Sim uArch: Shader 3 finished CTA #1 (24453,0), 1 CTAs running
GPGPU-Sim uArch: core:  3, cta: 1 initialized @(24454,0)
GPGPU-Sim PTX: 11100000 instructions simulated : ctaid=(43,0,0) tid=(200,0,0)
GPGPU-Sim PTX: 11200000 instructions simulated : ctaid=(25,0,0) tid=(411,0,0)
GPGPU-Sim PTX: 11300000 instructions simulated : ctaid=(39,0,0) tid=(119,0,0)
GPGPU-Sim uArch: cycles simulated: 25000  inst.: 9450637 (ipc=378.0) sim_rate=363486 (inst/sec) elapsed = 0:0:00:26 / Sun Jul 15 15:16:28 2018
GPGPU-Sim PTX: 11400000 instructions simulated : ctaid=(41,0,0) tid=(72,0,0)
GPGPU-Sim PTX: 11500000 instructions simulated : ctaid=(32,0,0) tid=(503,0,0)
GPGPU-Sim uArch: cycles simulated: 25500  inst.: 9633700 (ipc=377.8) sim_rate=356803 (inst/sec) elapsed = 0:0:00:27 / Sun Jul 15 15:16:29 2018
GPGPU-Sim PTX: 11600000 instructions simulated : ctaid=(33,0,0) tid=(253,0,0)
GPGPU-Sim PTX: 11700000 instructions simulated : ctaid=(27,0,0) tid=(440,0,0)
GPGPU-Sim uArch: Shader 14 finished CTA #1 (25936,0), 1 CTAs running
GPGPU-Sim uArch: core: 14, cta: 1 initialized @(25937,0)
GPGPU-Sim PTX: 11800000 instructions simulated : ctaid=(32,0,0) tid=(296,0,0)
GPGPU-Sim uArch: Shader 1 finished CTA #1 (26000,0), 1 CTAs running
GPGPU-Sim uArch: core:  1, cta: 1 initialized @(26001,0)
GPGPU-Sim uArch: Shader 4 finished CTA #1 (26044,0), 1 CTAs running
GPGPU-Sim uArch: core:  4, cta: 1 initialized @(26045,0)
GPGPU-Sim PTX: 11900000 instructions simulated : ctaid=(34,0,0) tid=(307,0,0)
GPGPU-Sim uArch: Shader 8 finished CTA #1 (26247,0), 1 CTAs running
GPGPU-Sim uArch: core:  8, cta: 1 initialized @(26248,0)
GPGPU-Sim uArch: Shader 5 finished CTA #1 (26349,0), 1 CTAs running
GPGPU-Sim uArch: core:  5, cta: 1 initialized @(26350,0)
GPGPU-Sim PTX: 12000000 instructions simulated : ctaid=(39,0,0) tid=(139,0,0)
GPGPU-Sim uArch: cycles simulated: 26500  inst.: 10081689 (ipc=380.4) sim_rate=360060 (inst/sec) elapsed = 0:0:00:28 / Sun Jul 15 15:16:30 2018
GPGPU-Sim PTX: 12100000 instructions simulated : ctaid=(43,0,0) tid=(177,0,0)
GPGPU-Sim uArch: Shader 10 finished CTA #1 (26585,0), 1 CTAs running
GPGPU-Sim uArch: core: 10, cta: 1 initialized @(26586,0)
GPGPU-Sim PTX: 12200000 instructions simulated : ctaid=(38,0,0) tid=(133,0,0)
GPGPU-Sim uArch: Shader 0 finished CTA #1 (26851,0), 1 CTAs running
GPGPU-Sim uArch: core:  0, cta: 1 initialized @(26852,0)
GPGPU-Sim uArch: Shader 2 finished CTA #1 (26864,0), 1 CTAs running
GPGPU-Sim uArch: core:  2, cta: 1 initialized @(26865,0)
GPGPU-Sim PTX: 12300000 instructions simulated : ctaid=(42,0,0) tid=(209,0,0)
GPGPU-Sim uArch: cycles simulated: 27000  inst.: 10332747 (ipc=382.7) sim_rate=356301 (inst/sec) elapsed = 0:0:00:29 / Sun Jul 15 15:16:31 2018
GPGPU-Sim PTX: 12400000 instructions simulated : ctaid=(33,0,0) tid=(135,0,0)
GPGPU-Sim uArch: Shader 7 finished CTA #1 (27074,0), 1 CTAs running
GPGPU-Sim uArch: core:  7, cta: 1 initialized @(27075,0)
GPGPU-Sim PTX: 12500000 instructions simulated : ctaid=(52,0,0) tid=(472,0,0)
GPGPU-Sim PTX: 12600000 instructions simulated : ctaid=(30,0,0) tid=(137,0,0)
GPGPU-Sim uArch: Shader 13 finished CTA #1 (27554,0), 1 CTAs running
GPGPU-Sim uArch: core: 13, cta: 1 initialized @(27555,0)
GPGPU-Sim PTX: 12700000 instructions simulated : ctaid=(51,0,0) tid=(320,0,0)
GPGPU-Sim PTX: 12800000 instructions simulated : ctaid=(44,0,0) tid=(26,0,0)
GPGPU-Sim uArch: Shader 11 finished CTA #1 (27789,0), 1 CTAs running
GPGPU-Sim uArch: core: 11, cta: 1 initialized @(27790,0)
GPGPU-Sim PTX: 12900000 instructions simulated : ctaid=(44,0,0) tid=(238,0,0)
GPGPU-Sim uArch: cycles simulated: 28000  inst.: 10798569 (ipc=385.7) sim_rate=359952 (inst/sec) elapsed = 0:0:00:30 / Sun Jul 15 15:16:32 2018
GPGPU-Sim PTX: 13000000 instructions simulated : ctaid=(41,0,0) tid=(411,0,0)
GPGPU-Sim PTX: 13100000 instructions simulated : ctaid=(32,0,0) tid=(416,0,0)
GPGPU-Sim PTX: 13200000 instructions simulated : ctaid=(40,0,0) tid=(60,0,0)
GPGPU-Sim PTX: 13300000 instructions simulated : ctaid=(34,0,0) tid=(346,0,0)
GPGPU-Sim uArch: Shader 12 finished CTA #1 (28723,0), 1 CTAs running
GPGPU-Sim uArch: core: 12, cta: 1 initialized @(28724,0)
GPGPU-Sim uArch: Shader 9 finished CTA #1 (28766,0), 1 CTAs running
GPGPU-Sim uArch: core:  9, cta: 1 initialized @(28767,0)
GPGPU-Sim PTX: 13400000 instructions simulated : ctaid=(33,0,0) tid=(478,0,0)
GPGPU-Sim uArch: cycles simulated: 29000  inst.: 11248813 (ipc=387.9) sim_rate=362864 (inst/sec) elapsed = 0:0:00:31 / Sun Jul 15 15:16:33 2018
GPGPU-Sim PTX: 13500000 instructions simulated : ctaid=(35,0,0) tid=(212,0,0)
GPGPU-Sim PTX: 13600000 instructions simulated : ctaid=(45,0,0) tid=(47,0,0)
GPGPU-Sim uArch: Shader 6 finished CTA #1 (29448,0), 1 CTAs running
GPGPU-Sim uArch: core:  6, cta: 1 initialized @(29449,0)
GPGPU-Sim uArch: cycles simulated: 29500  inst.: 11423015 (ipc=387.2) sim_rate=356969 (inst/sec) elapsed = 0:0:00:32 / Sun Jul 15 15:16:34 2018
GPGPU-Sim PTX: 13700000 instructions simulated : ctaid=(37,0,0) tid=(433,0,0)
GPGPU-Sim PTX: 13800000 instructions simulated : ctaid=(38,0,0) tid=(279,0,0)
GPGPU-Sim PTX: 13900000 instructions simulated : ctaid=(30,0,0) tid=(281,0,0)
GPGPU-Sim PTX: 14000000 instructions simulated : ctaid=(42,0,0) tid=(339,0,0)
GPGPU-Sim PTX: 14100000 instructions simulated : ctaid=(49,0,0) tid=(35,0,0)
GPGPU-Sim uArch: cycles simulated: 30500  inst.: 11828815 (ipc=387.8) sim_rate=358448 (inst/sec) elapsed = 0:0:00:33 / Sun Jul 15 15:16:35 2018
GPGPU-Sim PTX: 14200000 instructions simulated : ctaid=(41,0,0) tid=(180,0,0)
GPGPU-Sim PTX: 14300000 instructions simulated : ctaid=(41,0,0) tid=(249,0,0)
GPGPU-Sim PTX: 14400000 instructions simulated : ctaid=(35,0,0) tid=(266,0,0)
GPGPU-Sim PTX: 14500000 instructions simulated : ctaid=(51,0,0) tid=(366,0,0)
GPGPU-Sim PTX: 14600000 instructions simulated : ctaid=(41,0,0) tid=(231,0,0)
GPGPU-Sim uArch: cycles simulated: 31500  inst.: 12252090 (ipc=389.0) sim_rate=360355 (inst/sec) elapsed = 0:0:00:34 / Sun Jul 15 15:16:36 2018
GPGPU-Sim PTX: 14700000 instructions simulated : ctaid=(32,0,0) tid=(510,0,0)
GPGPU-Sim PTX: 14800000 instructions simulated : ctaid=(46,0,0) tid=(138,0,0)
GPGPU-Sim PTX: 14900000 instructions simulated : ctaid=(57,0,0) tid=(253,0,0)
GPGPU-Sim uArch: cycles simulated: 32000  inst.: 12448647 (ipc=389.0) sim_rate=355675 (inst/sec) elapsed = 0:0:00:35 / Sun Jul 15 15:16:37 2018
GPGPU-Sim PTX: 15000000 instructions simulated : ctaid=(48,0,0) tid=(329,0,0)
GPGPU-Sim PTX: 15100000 instructions simulated : ctaid=(43,0,0) tid=(111,0,0)
GPGPU-Sim PTX: 15200000 instructions simulated : ctaid=(38,0,0) tid=(465,0,0)
GPGPU-Sim PTX: 15300000 instructions simulated : ctaid=(44,0,0) tid=(325,0,0)
GPGPU-Sim uArch: cycles simulated: 33000  inst.: 12835477 (ipc=389.0) sim_rate=356541 (inst/sec) elapsed = 0:0:00:36 / Sun Jul 15 15:16:38 2018
GPGPU-Sim PTX: 15400000 instructions simulated : ctaid=(38,0,0) tid=(342,0,0)
GPGPU-Sim PTX: 15500000 instructions simulated : ctaid=(50,0,0) tid=(7,0,0)
GPGPU-Sim PTX: 15600000 instructions simulated : ctaid=(53,0,0) tid=(415,0,0)
GPGPU-Sim PTX: 15700000 instructions simulated : ctaid=(44,0,0) tid=(232,0,0)
GPGPU-Sim uArch: cycles simulated: 34000  inst.: 13159277 (ipc=387.0) sim_rate=355656 (inst/sec) elapsed = 0:0:00:37 / Sun Jul 15 15:16:39 2018
GPGPU-Sim PTX: 15800000 instructions simulated : ctaid=(45,0,0) tid=(187,0,0)
GPGPU-Sim PTX: 15900000 instructions simulated : ctaid=(50,0,0) tid=(365,0,0)
GPGPU-Sim uArch: Shader 14 finished CTA #0 (34354,0), 1 CTAs running
GPGPU-Sim uArch: core: 14, cta: 0 initialized @(34355,0)
GPGPU-Sim PTX: 16000000 instructions simulated : ctaid=(47,0,0) tid=(76,0,0)
GPGPU-Sim PTX: 16100000 instructions simulated : ctaid=(54,0,0) tid=(174,0,0)
GPGPU-Sim PTX: 16200000 instructions simulated : ctaid=(59,0,0) tid=(455,0,0)
GPGPU-Sim uArch: cycles simulated: 35000  inst.: 13533198 (ipc=386.7) sim_rate=356136 (inst/sec) elapsed = 0:0:00:38 / Sun Jul 15 15:16:40 2018
GPGPU-Sim PTX: 16300000 instructions simulated : ctaid=(45,0,0) tid=(73,0,0)
GPGPU-Sim PTX: 16400000 instructions simulated : ctaid=(46,0,0) tid=(508,0,0)
GPGPU-Sim uArch: cycles simulated: 35500  inst.: 13749618 (ipc=387.3) sim_rate=352554 (inst/sec) elapsed = 0:0:00:39 / Sun Jul 15 15:16:41 2018
GPGPU-Sim PTX: 16500000 instructions simulated : ctaid=(49,0,0) tid=(438,0,0)
GPGPU-Sim PTX: 16600000 instructions simulated : ctaid=(53,0,0) tid=(43,0,0)
GPGPU-Sim PTX: 16700000 instructions simulated : ctaid=(57,0,0) tid=(205,0,0)
GPGPU-Sim uArch: Shader 10 finished CTA #0 (36006,0), 1 CTAs running
GPGPU-Sim uArch: core: 10, cta: 0 initialized @(36007,0)
GPGPU-Sim PTX: 16800000 instructions simulated : ctaid=(52,0,0) tid=(221,0,0)
GPGPU-Sim PTX: 16900000 instructions simulated : ctaid=(50,0,0) tid=(241,0,0)
GPGPU-Sim uArch: cycles simulated: 36500  inst.: 14159201 (ipc=387.9) sim_rate=353980 (inst/sec) elapsed = 0:0:00:40 / Sun Jul 15 15:16:42 2018
GPGPU-Sim PTX: 17000000 instructions simulated : ctaid=(57,0,0) tid=(345,0,0)
GPGPU-Sim uArch: Shader 3 finished CTA #0 (36548,0), 1 CTAs running
GPGPU-Sim uArch: core:  3, cta: 0 initialized @(36549,0)
GPGPU-Sim uArch: Shader 2 finished CTA #0 (36560,0), 1 CTAs running
GPGPU-Sim uArch: core:  2, cta: 0 initialized @(36561,0)
GPGPU-Sim uArch: Shader 4 finished CTA #0 (36701,0), 1 CTAs running
GPGPU-Sim uArch: core:  4, cta: 0 initialized @(36702,0)
GPGPU-Sim uArch: Shader 1 finished CTA #0 (36855,0), 1 CTAs running
GPGPU-Sim uArch: core:  1, cta: 0 initialized @(36856,0)
GPGPU-Sim PTX: 17100000 instructions simulated : ctaid=(61,0,0) tid=(220,0,0)
GPGPU-Sim PTX: 17200000 instructions simulated : ctaid=(49,0,0) tid=(411,0,0)
GPGPU-Sim uArch: Shader 5 finished CTA #0 (37136,0), 1 CTAs running
GPGPU-Sim uArch: core:  5, cta: 0 initialized @(37137,0)
GPGPU-Sim uArch: Shader 8 finished CTA #0 (37208,0), 1 CTAs running
GPGPU-Sim uArch: core:  8, cta: 0 initialized @(37209,0)
GPGPU-Sim PTX: 17300000 instructions simulated : ctaid=(67,0,0) tid=(159,0,0)
GPGPU-Sim PTX: 17400000 instructions simulated : ctaid=(50,0,0) tid=(123,0,0)
GPGPU-Sim uArch: cycles simulated: 37500  inst.: 14564489 (ipc=388.4) sim_rate=355231 (inst/sec) elapsed = 0:0:00:41 / Sun Jul 15 15:16:43 2018
GPGPU-Sim PTX: 17500000 instructions simulated : ctaid=(55,0,0) tid=(89,0,0)
GPGPU-Sim PTX: 17600000 instructions simulated : ctaid=(56,0,0) tid=(462,0,0)
GPGPU-Sim uArch: Shader 0 finished CTA #0 (37863,0), 1 CTAs running
GPGPU-Sim uArch: core:  0, cta: 0 initialized @(37864,0)
GPGPU-Sim uArch: cycles simulated: 38000  inst.: 14761962 (ipc=388.5) sim_rate=351475 (inst/sec) elapsed = 0:0:00:42 / Sun Jul 15 15:16:44 2018
GPGPU-Sim PTX: 17700000 instructions simulated : ctaid=(58,0,0) tid=(181,0,0)
GPGPU-Sim uArch: Shader 7 finished CTA #0 (38147,0), 1 CTAs running
GPGPU-Sim uArch: core:  7, cta: 0 initialized @(38148,0)
GPGPU-Sim PTX: 17800000 instructions simulated : ctaid=(51,0,0) tid=(272,0,0)
GPGPU-Sim PTX: 17900000 instructions simulated : ctaid=(65,0,0) tid=(461,0,0)
GPGPU-Sim PTX: 18000000 instructions simulated : ctaid=(50,0,0) tid=(384,0,0)
GPGPU-Sim PTX: 18100000 instructions simulated : ctaid=(56,0,0) tid=(49,0,0)
GPGPU-Sim uArch: cycles simulated: 39000  inst.: 15165556 (ipc=388.9) sim_rate=352687 (inst/sec) elapsed = 0:0:00:43 / Sun Jul 15 15:16:45 2018
GPGPU-Sim PTX: 18200000 instructions simulated : ctaid=(58,0,0) tid=(11,0,0)
GPGPU-Sim uArch: Shader 13 finished CTA #0 (39198,0), 1 CTAs running
GPGPU-Sim uArch: core: 13, cta: 0 initialized @(39199,0)
GPGPU-Sim PTX: 18300000 instructions simulated : ctaid=(48,0,0) tid=(404,0,0)
GPGPU-Sim PTX: 18400000 instructions simulated : ctaid=(54,0,0) tid=(433,0,0)
GPGPU-Sim uArch: cycles simulated: 39500  inst.: 15373125 (ipc=389.2) sim_rate=349389 (inst/sec) elapsed = 0:0:00:44 / Sun Jul 15 15:16:46 2018
GPGPU-Sim uArch: Shader 9 finished CTA #0 (39635,0), 1 CTAs running
GPGPU-Sim uArch: core:  9, cta: 0 initialized @(39636,0)
GPGPU-Sim PTX: 18500000 instructions simulated : ctaid=(59,0,0) tid=(231,0,0)
GPGPU-Sim uArch: Shader 6 finished CTA #0 (39737,0), 1 CTAs running
GPGPU-Sim uArch: core:  6, cta: 0 initialized @(39738,0)
GPGPU-Sim PTX: 18600000 instructions simulated : ctaid=(50,0,0) tid=(385,0,0)
GPGPU-Sim PTX: 18700000 instructions simulated : ctaid=(55,0,0) tid=(70,0,0)
GPGPU-Sim PTX: 18800000 instructions simulated : ctaid=(62,0,0) tid=(432,0,0)
GPGPU-Sim uArch: Shader 11 finished CTA #0 (40262,0), 1 CTAs running
GPGPU-Sim uArch: core: 11, cta: 0 initialized @(40263,0)
GPGPU-Sim uArch: Shader 12 finished CTA #0 (40316,0), 1 CTAs running
GPGPU-Sim uArch: core: 12, cta: 0 initialized @(40317,0)
GPGPU-Sim PTX: 18900000 instructions simulated : ctaid=(46,0,0) tid=(454,0,0)
GPGPU-Sim uArch: cycles simulated: 40500  inst.: 15817768 (ipc=390.6) sim_rate=351505 (inst/sec) elapsed = 0:0:00:45 / Sun Jul 15 15:16:47 2018
GPGPU-Sim PTX: 19000000 instructions simulated : ctaid=(74,0,0) tid=(63,0,0)
GPGPU-Sim PTX: 19100000 instructions simulated : ctaid=(64,0,0) tid=(140,0,0)
GPGPU-Sim uArch: cycles simulated: 41000  inst.: 15983883 (ipc=389.9) sim_rate=347475 (inst/sec) elapsed = 0:0:00:46 / Sun Jul 15 15:16:48 2018
GPGPU-Sim PTX: 19200000 instructions simulated : ctaid=(59,0,0) tid=(442,0,0)
GPGPU-Sim PTX: 19300000 instructions simulated : ctaid=(60,0,0) tid=(28,0,0)
GPGPU-Sim PTX: 19400000 instructions simulated : ctaid=(50,0,0) tid=(446,0,0)
GPGPU-Sim PTX: 19500000 instructions simulated : ctaid=(56,0,0) tid=(387,0,0)
GPGPU-Sim PTX: 19600000 instructions simulated : ctaid=(59,0,0) tid=(258,0,0)
GPGPU-Sim PTX: 19700000 instructions simulated : ctaid=(70,0,0) tid=(343,0,0)
GPGPU-Sim uArch: cycles simulated: 42000  inst.: 16458373 (ipc=391.9) sim_rate=350178 (inst/sec) elapsed = 0:0:00:47 / Sun Jul 15 15:16:49 2018
GPGPU-Sim PTX: 19800000 instructions simulated : ctaid=(57,0,0) tid=(152,0,0)
GPGPU-Sim PTX: 19900000 instructions simulated : ctaid=(63,0,0) tid=(467,0,0)
GPGPU-Sim uArch: cycles simulated: 42500  inst.: 16653987 (ipc=391.9) sim_rate=346958 (inst/sec) elapsed = 0:0:00:48 / Sun Jul 15 15:16:50 2018
GPGPU-Sim PTX: 20000000 instructions simulated : ctaid=(51,0,0) tid=(446,0,0)
GPGPU-Sim PTX: 20100000 instructions simulated : ctaid=(61,0,0) tid=(49,0,0)
GPGPU-Sim PTX: 20200000 instructions simulated : ctaid=(74,0,0) tid=(33,0,0)
GPGPU-Sim uArch: cycles simulated: 43000  inst.: 16867624 (ipc=392.3) sim_rate=344237 (inst/sec) elapsed = 0:0:00:49 / Sun Jul 15 15:16:51 2018
GPGPU-Sim PTX: 20300000 instructions simulated : ctaid=(54,0,0) tid=(454,0,0)
GPGPU-Sim PTX: 20400000 instructions simulated : ctaid=(60,0,0) tid=(271,0,0)
GPGPU-Sim uArch: cycles simulated: 43500  inst.: 17069034 (ipc=392.4) sim_rate=341380 (inst/sec) elapsed = 0:0:00:50 / Sun Jul 15 15:16:52 2018
GPGPU-Sim uArch: Shader 14 finished CTA #1 (43536,0), 1 CTAs running
GPGPU-Sim uArch: core: 14, cta: 1 initialized @(43537,0)
GPGPU-Sim PTX: 20500000 instructions simulated : ctaid=(67,0,0) tid=(40,0,0)
GPGPU-Sim PTX: 20600000 instructions simulated : ctaid=(61,0,0) tid=(409,0,0)
GPGPU-Sim PTX: 20700000 instructions simulated : ctaid=(68,0,0) tid=(217,0,0)
GPGPU-Sim PTX: 20800000 instructions simulated : ctaid=(65,0,0) tid=(453,0,0)
GPGPU-Sim PTX: 20900000 instructions simulated : ctaid=(50,0,0) tid=(484,0,0)
GPGPU-Sim uArch: cycles simulated: 44500  inst.: 17452067 (ipc=392.2) sim_rate=342197 (inst/sec) elapsed = 0:0:00:51 / Sun Jul 15 15:16:53 2018
GPGPU-Sim PTX: 21000000 instructions simulated : ctaid=(61,0,0) tid=(175,0,0)
GPGPU-Sim PTX: 21100000 instructions simulated : ctaid=(56,0,0) tid=(424,0,0)
GPGPU-Sim uArch: cycles simulated: 45000  inst.: 17662610 (ipc=392.5) sim_rate=339665 (inst/sec) elapsed = 0:0:00:52 / Sun Jul 15 15:16:54 2018
GPGPU-Sim PTX: 21200000 instructions simulated : ctaid=(68,0,0) tid=(143,0,0)
GPGPU-Sim PTX: 21300000 instructions simulated : ctaid=(62,0,0) tid=(282,0,0)
GPGPU-Sim PTX: 21400000 instructions simulated : ctaid=(65,0,0) tid=(217,0,0)
GPGPU-Sim PTX: 21500000 instructions simulated : ctaid=(62,0,0) tid=(23,0,0)
GPGPU-Sim uArch: Shader 4 finished CTA #1 (45718,0), 1 CTAs running
GPGPU-Sim uArch: core:  4, cta: 1 initialized @(45719,0)
GPGPU-Sim uArch: Shader 3 finished CTA #1 (45763,0), 1 CTAs running
GPGPU-Sim uArch: core:  3, cta: 1 initialized @(45764,0)
GPGPU-Sim PTX: 21600000 instructions simulated : ctaid=(67,0,0) tid=(178,0,0)
GPGPU-Sim uArch: Shader 10 finished CTA #1 (45882,0), 1 CTAs running
GPGPU-Sim uArch: core: 10, cta: 1 initialized @(45883,0)
GPGPU-Sim uArch: cycles simulated: 46000  inst.: 18079592 (ipc=393.0) sim_rate=341124 (inst/sec) elapsed = 0:0:00:53 / Sun Jul 15 15:16:55 2018
GPGPU-Sim PTX: 21700000 instructions simulated : ctaid=(69,0,0) tid=(170,0,0)
GPGPU-Sim PTX: 21800000 instructions simulated : ctaid=(55,0,0) tid=(466,0,0)
GPGPU-Sim uArch: Shader 2 finished CTA #1 (46196,0), 1 CTAs running
GPGPU-Sim uArch: core:  2, cta: 1 initialized @(46197,0)
GPGPU-Sim PTX: 21900000 instructions simulated : ctaid=(78,0,0) tid=(222,0,0)
GPGPU-Sim uArch: cycles simulated: 46500  inst.: 18295183 (ipc=393.4) sim_rate=338799 (inst/sec) elapsed = 0:0:00:54 / Sun Jul 15 15:16:56 2018
GPGPU-Sim uArch: Shader 1 finished CTA #1 (46582,0), 1 CTAs running
GPGPU-Sim uArch: core:  1, cta: 1 initialized @(46583,0)
GPGPU-Sim uArch: Shader 8 finished CTA #1 (46589,0), 1 CTAs running
GPGPU-Sim uArch: core:  8, cta: 1 initialized @(46590,0)
GPGPU-Sim PTX: 22000000 instructions simulated : ctaid=(63,0,0) tid=(120,0,0)
GPGPU-Sim PTX: 22100000 instructions simulated : ctaid=(81,0,0) tid=(342,0,0)
GPGPU-Sim PTX: 22200000 instructions simulated : ctaid=(61,0,0) tid=(239,0,0)
GPGPU-Sim uArch: cycles simulated: 47000  inst.: 18524042 (ipc=394.1) sim_rate=336800 (inst/sec) elapsed = 0:0:00:55 / Sun Jul 15 15:16:57 2018
GPGPU-Sim PTX: 22300000 instructions simulated : ctaid=(75,0,0) tid=(54,0,0)
GPGPU-Sim uArch: Shader 0 finished CTA #1 (47265,0), 1 CTAs running
GPGPU-Sim uArch: core:  0, cta: 1 initialized @(47266,0)
GPGPU-Sim PTX: 22400000 instructions simulated : ctaid=(63,0,0) tid=(268,0,0)
GPGPU-Sim PTX: 22500000 instructions simulated : ctaid=(67,0,0) tid=(340,0,0)
GPGPU-Sim uArch: cycles simulated: 47500  inst.: 18761676 (ipc=395.0) sim_rate=335029 (inst/sec) elapsed = 0:0:00:56 / Sun Jul 15 15:16:58 2018
GPGPU-Sim uArch: Shader 7 finished CTA #1 (47592,0), 1 CTAs running
GPGPU-Sim uArch: core:  7, cta: 1 initialized @(47593,0)
GPGPU-Sim PTX: 22600000 instructions simulated : ctaid=(68,0,0) tid=(94,0,0)
GPGPU-Sim uArch: Shader 5 finished CTA #1 (47786,0), 1 CTAs running
GPGPU-Sim uArch: core:  5, cta: 1 initialized @(47787,0)
GPGPU-Sim PTX: 22700000 instructions simulated : ctaid=(75,0,0) tid=(124,0,0)
GPGPU-Sim uArch: cycles simulated: 48000  inst.: 19003626 (ipc=395.9) sim_rate=333396 (inst/sec) elapsed = 0:0:00:57 / Sun Jul 15 15:16:59 2018
GPGPU-Sim PTX: 22800000 instructions simulated : ctaid=(64,0,0) tid=(329,0,0)
GPGPU-Sim PTX: 22900000 instructions simulated : ctaid=(67,0,0) tid=(394,0,0)
GPGPU-Sim PTX: 23000000 instructions simulated : ctaid=(69,0,0) tid=(218,0,0)
GPGPU-Sim PTX: 23100000 instructions simulated : ctaid=(67,0,0) tid=(252,0,0)
GPGPU-Sim PTX: 23200000 instructions simulated : ctaid=(69,0,0) tid=(501,0,0)
GPGPU-Sim PTX: 23300000 instructions simulated : ctaid=(66,0,0) tid=(115,0,0)
GPGPU-Sim uArch: cycles simulated: 49000  inst.: 19432230 (ipc=396.6) sim_rate=335038 (inst/sec) elapsed = 0:0:00:58 / Sun Jul 15 15:17:00 2018
GPGPU-Sim PTX: 23400000 instructions simulated : ctaid=(73,0,0) tid=(57,0,0)
GPGPU-Sim PTX: 23500000 instructions simulated : ctaid=(62,0,0) tid=(319,0,0)
GPGPU-Sim uArch: cycles simulated: 49500  inst.: 19622438 (ipc=396.4) sim_rate=332583 (inst/sec) elapsed = 0:0:00:59 / Sun Jul 15 15:17:01 2018
GPGPU-Sim PTX: 23600000 instructions simulated : ctaid=(65,0,0) tid=(295,0,0)
GPGPU-Sim uArch: Shader 9 finished CTA #1 (49655,0), 1 CTAs running
GPGPU-Sim uArch: core:  9, cta: 1 initialized @(49656,0)
GPGPU-Sim PTX: 23700000 instructions simulated : ctaid=(80,0,0) tid=(11,0,0)
GPGPU-Sim uArch: Shader 6 finished CTA #1 (49916,0), 1 CTAs running
GPGPU-Sim uArch: core:  6, cta: 1 initialized @(49917,0)
GPGPU-Sim uArch: cycles simulated: 50000  inst.: 19845236 (ipc=396.9) sim_rate=330753 (inst/sec) elapsed = 0:0:01:00 / Sun Jul 15 15:17:02 2018
GPGPU-Sim PTX: 23800000 instructions simulated : ctaid=(65,0,0) tid=(429,0,0)
GPGPU-Sim PTX: 23900000 instructions simulated : ctaid=(71,0,0) tid=(43,0,0)
GPGPU-Sim PTX: 24000000 instructions simulated : ctaid=(66,0,0) tid=(470,0,0)
GPGPU-Sim uArch: cycles simulated: 50500  inst.: 20053287 (ipc=397.1) sim_rate=328742 (inst/sec) elapsed = 0:0:01:01 / Sun Jul 15 15:17:03 2018
GPGPU-Sim uArch: Shader 11 finished CTA #1 (50644,0), 1 CTAs running
GPGPU-Sim uArch: core: 11, cta: 1 initialized @(50645,0)
GPGPU-Sim PTX: 24100000 instructions simulated : ctaid=(65,0,0) tid=(309,0,0)
GPGPU-Sim uArch: Shader 13 finished CTA #1 (50692,0), 1 CTAs running
GPGPU-Sim uArch: core: 13, cta: 1 initialized @(50693,0)
GPGPU-Sim PTX: 24200000 instructions simulated : ctaid=(63,0,0) tid=(215,0,0)
GPGPU-Sim uArch: cycles simulated: 51000  inst.: 20239173 (ipc=396.8) sim_rate=326438 (inst/sec) elapsed = 0:0:01:02 / Sun Jul 15 15:17:04 2018
GPGPU-Sim PTX: 24300000 instructions simulated : ctaid=(86,0,0) tid=(24,0,0)
GPGPU-Sim PTX: 24400000 instructions simulated : ctaid=(68,0,0) tid=(120,0,0)
GPGPU-Sim PTX: 24500000 instructions simulated : ctaid=(70,0,0) tid=(361,0,0)
GPGPU-Sim uArch: cycles simulated: 51500  inst.: 20445207 (ipc=397.0) sim_rate=319456 (inst/sec) elapsed = 0:0:01:04 / Sun Jul 15 15:17:06 2018
GPGPU-Sim PTX: 24600000 instructions simulated : ctaid=(71,0,0) tid=(156,0,0)
GPGPU-Sim uArch: Shader 12 finished CTA #1 (51747,0), 1 CTAs running
GPGPU-Sim uArch: core: 12, cta: 1 initialized @(51748,0)
GPGPU-Sim PTX: 24700000 instructions simulated : ctaid=(84,0,0) tid=(144,0,0)
GPGPU-Sim uArch: cycles simulated: 52000  inst.: 20668908 (ipc=397.5) sim_rate=317983 (inst/sec) elapsed = 0:0:01:05 / Sun Jul 15 15:17:07 2018
GPGPU-Sim PTX: 24800000 instructions simulated : ctaid=(88,0,0) tid=(392,0,0)
GPGPU-Sim PTX: 24900000 instructions simulated : ctaid=(88,0,0) tid=(310,0,0)
GPGPU-Sim PTX: 25000000 instructions simulated : ctaid=(68,0,0) tid=(204,0,0)
GPGPU-Sim uArch: cycles simulated: 52500  inst.: 20883109 (ipc=397.8) sim_rate=316410 (inst/sec) elapsed = 0:0:01:06 / Sun Jul 15 15:17:08 2018
GPGPU-Sim PTX: 25100000 instructions simulated : ctaid=(87,0,0) tid=(80,0,0)
GPGPU-Sim PTX: 25200000 instructions simulated : ctaid=(80,0,0) tid=(199,0,0)
GPGPU-Sim uArch: cycles simulated: 53000  inst.: 21067490 (ipc=397.5) sim_rate=314440 (inst/sec) elapsed = 0:0:01:07 / Sun Jul 15 15:17:09 2018
GPGPU-Sim PTX: 25300000 instructions simulated : ctaid=(78,0,0) tid=(33,0,0)
GPGPU-Sim PTX: 25400000 instructions simulated : ctaid=(62,0,0) tid=(383,0,0)
GPGPU-Sim PTX: 25500000 instructions simulated : ctaid=(74,0,0) tid=(101,0,0)
GPGPU-Sim uArch: Shader 14 finished CTA #0 (53578,0), 1 CTAs running
GPGPU-Sim uArch: core: 14, cta: 0 initialized @(53579,0)
GPGPU-Sim PTX: 25600000 instructions simulated : ctaid=(80,0,0) tid=(193,0,0)
GPGPU-Sim PTX: 25700000 instructions simulated : ctaid=(79,0,0) tid=(164,0,0)
GPGPU-Sim uArch: cycles simulated: 54000  inst.: 21468815 (ipc=397.6) sim_rate=311142 (inst/sec) elapsed = 0:0:01:09 / Sun Jul 15 15:17:11 2018
GPGPU-Sim PTX: 25800000 instructions simulated : ctaid=(88,0,0) tid=(74,0,0)
GPGPU-Sim PTX: 25900000 instructions simulated : ctaid=(87,0,0) tid=(234,0,0)
GPGPU-Sim PTX: 26000000 instructions simulated : ctaid=(78,0,0) tid=(166,0,0)
GPGPU-Sim uArch: cycles simulated: 54500  inst.: 21676977 (ipc=397.7) sim_rate=309671 (inst/sec) elapsed = 0:0:01:10 / Sun Jul 15 15:17:12 2018
GPGPU-Sim PTX: 26100000 instructions simulated : ctaid=(84,0,0) tid=(338,0,0)
GPGPU-Sim PTX: 26200000 instructions simulated : ctaid=(76,0,0) tid=(279,0,0)
GPGPU-Sim uArch: cycles simulated: 55000  inst.: 21893123 (ipc=398.1) sim_rate=304071 (inst/sec) elapsed = 0:0:01:12 / Sun Jul 15 15:17:14 2018
GPGPU-Sim uArch: Shader 4 finished CTA #0 (55048,0), 1 CTAs running
GPGPU-Sim uArch: core:  4, cta: 0 initialized @(55049,0)
GPGPU-Sim PTX: 26300000 instructions simulated : ctaid=(79,0,0) tid=(59,0,0)
GPGPU-Sim PTX: 26400000 instructions simulated : ctaid=(86,0,0) tid=(218,0,0)
GPGPU-Sim uArch: Shader 1 finished CTA #0 (55424,0), 1 CTAs running
GPGPU-Sim uArch: core:  1, cta: 0 initialized @(55425,0)
GPGPU-Sim uArch: cycles simulated: 55500  inst.: 22073964 (ipc=397.7) sim_rate=298296 (inst/sec) elapsed = 0:0:01:14 / Sun Jul 15 15:17:16 2018
GPGPU-Sim PTX: 26500000 instructions simulated : ctaid=(84,0,0) tid=(276,0,0)
GPGPU-Sim PTX: 26600000 instructions simulated : ctaid=(90,0,0) tid=(234,0,0)
GPGPU-Sim PTX: 26700000 instructions simulated : ctaid=(88,0,0) tid=(241,0,0)
GPGPU-Sim uArch: cycles simulated: 56000  inst.: 22293396 (ipc=398.1) sim_rate=293334 (inst/sec) elapsed = 0:0:01:16 / Sun Jul 15 15:17:18 2018
GPGPU-Sim PTX: 26800000 instructions simulated : ctaid=(75,0,0) tid=(62,0,0)
GPGPU-Sim uArch: Shader 10 finished CTA #0 (56195,0), 1 CTAs running
GPGPU-Sim uArch: core: 10, cta: 0 initialized @(56196,0)
GPGPU-Sim uArch: Shader 2 finished CTA #0 (56254,0), 1 CTAs running
GPGPU-Sim uArch: core:  2, cta: 0 initialized @(56255,0)
GPGPU-Sim PTX: 26900000 instructions simulated : ctaid=(77,0,0) tid=(77,0,0)
GPGPU-Sim uArch: cycles simulated: 56500  inst.: 22494569 (ipc=398.1) sim_rate=292137 (inst/sec) elapsed = 0:0:01:17 / Sun Jul 15 15:17:19 2018
GPGPU-Sim PTX: 27000000 instructions simulated : ctaid=(78,0,0) tid=(122,0,0)
GPGPU-Sim PTX: 27100000 instructions simulated : ctaid=(88,0,0) tid=(246,0,0)
GPGPU-Sim uArch: Shader 8 finished CTA #0 (56746,0), 1 CTAs running
GPGPU-Sim uArch: core:  8, cta: 0 initialized @(56747,0)
GPGPU-Sim uArch: Shader 3 finished CTA #0 (56793,0), 1 CTAs running
GPGPU-Sim uArch: core:  3, cta: 0 initialized @(56794,0)
GPGPU-Sim PTX: 27200000 instructions simulated : ctaid=(88,0,0) tid=(95,0,0)
GPGPU-Sim uArch: cycles simulated: 57000  inst.: 22687035 (ipc=398.0) sim_rate=290859 (inst/sec) elapsed = 0:0:01:18 / Sun Jul 15 15:17:20 2018
GPGPU-Sim uArch: Shader 7 finished CTA #0 (57093,0), 1 CTAs running
GPGPU-Sim uArch: core:  7, cta: 0 initialized @(57094,0)
GPGPU-Sim PTX: 27300000 instructions simulated : ctaid=(87,0,0) tid=(330,0,0)
GPGPU-Sim uArch: Shader 5 finished CTA #0 (57150,0), 1 CTAs running
GPGPU-Sim uArch: core:  5, cta: 0 initialized @(57151,0)
GPGPU-Sim PTX: 27400000 instructions simulated : ctaid=(90,0,0) tid=(217,0,0)
GPGPU-Sim uArch: cycles simulated: 57500  inst.: 22894959 (ipc=398.2) sim_rate=286186 (inst/sec) elapsed = 0:0:01:20 / Sun Jul 15 15:17:22 2018
GPGPU-Sim PTX: 27500000 instructions simulated : ctaid=(74,0,0) tid=(310,0,0)
GPGPU-Sim PTX: 27600000 instructions simulated : ctaid=(82,0,0) tid=(293,0,0)
GPGPU-Sim PTX: 27700000 instructions simulated : ctaid=(76,0,0) tid=(245,0,0)
GPGPU-Sim uArch: cycles simulated: 58000  inst.: 23142554 (ipc=399.0) sim_rate=285710 (inst/sec) elapsed = 0:0:01:21 / Sun Jul 15 15:17:23 2018
GPGPU-Sim PTX: 27800000 instructions simulated : ctaid=(90,0,0) tid=(207,0,0)
GPGPU-Sim PTX: 27900000 instructions simulated : ctaid=(87,0,0) tid=(8,0,0)
GPGPU-Sim PTX: 28000000 instructions simulated : ctaid=(88,0,0) tid=(125,0,0)
GPGPU-Sim uArch: cycles simulated: 58500  inst.: 23358754 (ipc=399.3) sim_rate=284862 (inst/sec) elapsed = 0:0:01:22 / Sun Jul 15 15:17:24 2018
GPGPU-Sim uArch: Shader 0 finished CTA #0 (58610,0), 1 CTAs running
GPGPU-Sim uArch: core:  0, cta: 0 initialized @(58611,0)
GPGPU-Sim PTX: 28100000 instructions simulated : ctaid=(77,0,0) tid=(402,0,0)
GPGPU-Sim PTX: 28200000 instructions simulated : ctaid=(95,0,0) tid=(130,0,0)
GPGPU-Sim uArch: Shader 6 finished CTA #0 (58822,0), 1 CTAs running
GPGPU-Sim uArch: core:  6, cta: 0 initialized @(58823,0)
GPGPU-Sim PTX: 28300000 instructions simulated : ctaid=(92,0,0) tid=(186,0,0)
[...]
traffic_breakdown_coretomem[CONST_ACC_R] = 120 {8:15,}
traffic_breakdown_coretomem[GLOBAL_ACC_R] = 146712 {8:18339,}
traffic_breakdown_coretomem[GLOBAL_ACC_W] = 20896000 {40:160,136:153600,}
traffic_breakdown_coretomem[INST_ACC_R] = 856 {8:107,}
traffic_breakdown_memtocore[CONST_ACC_R] = 1080 {72:15,}
traffic_breakdown_memtocore[GLOBAL_ACC_R] = 2494104 {136:18339,}
traffic_breakdown_memtocore[GLOBAL_ACC_W] = 1230080 {8:153760,}
traffic_breakdown_memtocore[INST_ACC_R] = 14552 {136:107,}
maxmrqlatency = 803 
maxdqlatency = 0 
maxmflatency = 1930 
averagemflatency = 773 
max_icnt2mem_latency = 1165 
max_icnt2sh_latency = 267147 
mrq_lat_table:51491 	1832 	4623 	13742 	45543 	64191 	67030 	50336 	14650 	238 	0 	0 	0 	0 	0 	0 	0 	0 	0 	0 	0 	0 	0 	0 	0 	0 	0 	0 	0 	0 	0 	0 	
dq_lat_table:0 	0 	0 	0 	0 	0 	0 	0 	0 	0 	0 	0 	0 	0 	0 	0 	0 	0 	0 	0 	0 	0 	0 	0 	0 	0 	0 	0 	0 	0 	0 	0 	
mf_lat_table:0 	0 	0 	0 	0 	0 	0 	1714 	17131 	132006 	21263 	0 	0 	0 	0 	0 	0 	0 	0 	0 	0 	0 	0 	0 	0 	0 	0 	0 	0 	0 	0 	0 	
icnt2mem_lat_table:0 	0 	0 	1545 	1410 	3194 	40763 	42369 	74892 	8045 	3 	0 	0 	0 	0 	0 	0 	0 	0 	0 	0 	0 	0 	0 	
icnt2sh_lat_table:0 	0 	0 	16494 	1709 	148 	3 	0 	0 	0 	0 	324 	2383 	4876 	9737 	19796 	39311 	77173 	160 	0 	0 	0 	0 	0 	
mf_lat_pw_table:0 	0 	0 	0 	0 	0 	0 	8 	10 	510 	0 	0 	0 	0 	0 	0 	0 	0 	0 	0 	0 	0 	0 	0 	0 	0 	0 	0 	0 	0 	0 	0 	
maximum concurrent accesses to same row:
dram[0]:        26        30        12         8        20        16        56        52        10        10        38        28        18        16        10         8 
dram[1]:        32        22        10        10        20        18        56        48        10        10        40        12        20        22        10         8 
dram[2]:        32        28        12        10        16        12        48        54         8        16        32        38        10        20         8        10 
dram[3]:        12        46        12        10        14        18        46        50        10        10        26        38        18        12         8        10 
dram[4]:        36        36        10        10        20        20        44        46        10        14        24        32        12        14        10        10 
dram[5]:        28        30         8        10        20        12        54        48        10        10        28        32        10        12        10        10 
maximum service time to same row:
dram[0]:     18991     18150     17137     17408     17504     17363     18343     18259     21059     20845     20106     19031     17703     16781     22013     24801 
dram[1]:     17680     17044     15833     16829     14981     16579     15898     16819     20937     20852     19150     17464     16407     14913     23482     24488 
dram[2]:     17964     16272     15289     17263     13827     17133     16856     18314     21127     21050     17856     16226     15864     16575     22366     22863 
dram[3]:     15614     15113     13486     16922     13353     16620     15830     16711     21119     21150     16638     15589     17019     16274     23844     23232 
dram[4]:     19351     14146     19583     16240     18811     15375     19553     14751     20513     21171     19736     14493     18105     14963     23697     23554 
dram[5]:     18812     14521     18330     15986     18700     15864     18232     13953     20887     21111     18863     14478     16941     14681     24276     23473 
average row accesses per activate:
dram[0]:  2.597299  2.608140  2.470855  2.476876  2.470855  2.429316  2.625100  2.529276  2.493506  2.542835  2.548009  2.523184  2.506912  2.538880  2.489702  2.490465 
dram[1]:  2.560784  2.568396  2.467120  2.474242  2.439462  2.485540  2.633226  2.571652  2.443114  2.516949  2.499234  2.440957  2.429316  2.512702  2.497322  2.537684 
dram[2]:  2.560784  2.710373  2.392386  2.590476  2.424647  2.446777  2.552877  2.609698  2.401910  2.538103  2.441287  2.592534  2.397944  2.613291  2.412417  2.562009 
dram[3]:  2.481763  2.575710  2.399413  2.576164  2.436567  2.468986  2.523846  2.648911  2.399413  2.436567  2.383212  2.532196  2.354467  2.566038  2.459683  2.496177 
dram[4]:  2.621687  2.480638  2.503067  2.428996  2.562009  2.429740  2.616733  2.548137  2.602871  2.406917  2.623794  2.486301  2.542056  2.465257  2.441287  2.507680 
dram[5]:  2.601594  2.461539  2.544817  2.412851  2.532971  2.397944  2.548913  2.546160  2.560000  2.440209  2.482129  2.433036  2.499234  2.493506  2.469743  2.451201 
average row locality = 313676/125284 = 2.503720
number of total memory accesses made:
dram[0]:         0         0         0         0         0         0         0         0         0         0         0         0         0         0         0         0 
dram[1]:         0         0         0         0         0         0         0         0         0         0         0         0         0         0         0         0 
dram[2]:         0         0         0         0         0         0         0         0         0         0         0         0         0         0         0         0 
dram[3]:         0         0         0         0         0         0         0         0         0         0         0         0         0         0         0         0 
dram[4]:         0         0         0         0         0         0         0         0         0         0         0         0         0         0         0         0 
dram[5]:         0         0         0         0         0         0         0         0         0         0         0         0         0         0         0         0 
total accesses: 0
min_bank_accesses = 0!
min_chip_accesses = 0!
number of total read accesses:
dram[0]:      1666      1668      1664      1667      1664      1665      1684      1683      1664      1665      1664      1665      1664      1665      1664      1665 
dram[1]:      1665      1667      1664      1666      1664      1666      1681      1684      1664      1667      1664      1666      1665      1664      1664      1666 
dram[2]:      1665      1666      1668      1664      1666      1664      1683      1683      1669      1664      1664      1664      1666      1664      1664      1664 
dram[3]:      1666      1666      1668      1664      1665      1664      1681      1682      1668      1665      1665      1664      1668      1664      1664      1665 
dram[4]:      1664      1667      1664      1667      1664      1668      1684      1682      1664      1671      1664      1667      1664      1664      1664      1665 
dram[5]:      1665      1664      1665      1667      1665      1666      1683      1682      1664      1665      1664      1670      1664      1664      1665      1665 
total reads: 160072
bank skew: 1684/1664 = 1.01
chip skew: 26683/26677 = 1.00
number of total write accesses:
dram[0]:      1604      1600      1600      1600      1600      1600      1600      1600      1600      1600      1600      1600      1600      1600      1600      1600 
dram[1]:      1600      1600      1600      1600      1600      1600      1600      1600      1600      1600      1600      1600      1600      1600      1600      1600 
dram[2]:      1600      1600      1600      1600      1600      1600      1600      1600      1600      1600      1600      1600      1600      1600      1600      1600 
dram[3]:      1600      1600      1600      1600      1600      1600      1600      1600      1600      1600      1600      1600      1600      1600      1600      1600 
dram[4]:      1600      1600      1600      1600      1600      1600      1600      1600      1600      1600      1600      1600      1600      1600      1600      1600 
dram[5]:      1600      1600      1600      1600      1600      1600      1600      1600      1600      1600      1600      1600      1600      1600      1600      1600 
total reads: 153604
bank skew: 1604/1600 = 1.00
chip skew: 25604/25600 = 1.00
average mf latency per bank:
dram[0]:        430       422       399       416       396       403       420       404       396       425       403       400       403       403       400       432
dram[1]:        379       386       379       380       368       386       385       383       369       391       375       382       383       382       373       397
dram[2]:        452       478       448       490       406       440       454       478       434       484       425       462       447       484       420       469
dram[3]:        407       419       426       435       399       400       419       436       423       427       401       416       417       434       404       422
dram[4]:        467       468       462       461       454       458       465       478       476       465       465       469       467       472       466       470
dram[5]:        406       414       418       435       402       399       401       415       423       429       394       398       411       428       428       426
maximum mf latency per bank:
dram[0]:       1469      1619      1427      1550      1519      1582      1499      1521      1454      1524      1453      1495      1409      1397      1537      1654
dram[1]:       1440      1364      1446      1724      1281      1499      1485      1405      1536      1642      1330      1333      1360      1497      1404      1517
dram[2]:       1531      1930      1452      1715      1617      1571      1584      1666      1524      1640      1559      1633      1500      1594      1528      1609
dram[3]:       1456      1457      1561      1615      1446      1417      1749      1750      1600      1564      1549      1448      1439      1471      1519      1500
dram[4]:       1627      1578      1667      1654      1825      1664      1583      1583      1716      1550      1628      1578      1521      1758      1512      1612
dram[5]:       1785      1535      1595      1551      1677      1384      1553      1634      1466      1627      1439      1456      1412      1635      1526      1700

Number of Memory Banks Accessed per Memory Operation per Warp (from 0):
0	0	0	0	0	0	0	0	0	0	0	0	0	0	0	0	0	0	0	0	0	0	0	0	0	0	0	0	0	0	0	0	0	0	0	0	0	0	0	0	0	0	0	0	0	0	0	0	0	0	0	0	0	0	0	0	0	0	0	0	0	0	0	0	0	0	0	0	0	0	0	0	0	0	0	0	0	0	0	0	0	0	0	0	0	0	0	0	0	0	0	0	0	0	0	0	
Average # of Memory Banks Accessed per Memory Operation per Warp=-nan

position of mrq chosen
0	0	0	0	0	0	0	0	0	0	0	0	0	0	0	0	

average position of mrq chosen = -nan
Memory Partition 0: 
Cache L2_bank_000:
MSHR contents

Cache L2_bank_001:
MSHR contents

In Dram Latency Queue (total = 0): 
DRAM[0]: 16 bks, busW=4 BL=8 CL=12, tRRD=2 tCCD=6, tRCD=12 tRAS=28 tRP=12 tRC=40
n_cmd=352634 n_nop=206602 n_act=20745 n_pre=20729 n_req=52281 n_rd=53354 n_write=51204 bw_util=0.593
n_activity=339450 dram_eff=0.616
bk0: 3332a 229190i bk1: 3336a 226844i bk2: 3328a 228400i bk3: 3334a 228880i bk4: 3328a 228347i bk5: 3330a 229301i bk6: 3368a 224088i bk7: 3366a 224926i bk8: 3328a 230696i bk9: 3330a 228645i bk10: 3328a 230869i bk11: 3330a 230532i bk12: 3328a 227480i bk13: 3330a 228161i bk14: 3328a 223761i bk15: 3330a 225271i 
dram_util_bins: 0 0 0 0 0 0 0 0 0 0
dram_eff_bins: 0 0 0 0 0 0 0 0 0 0
mrqq: max=16 avg=14.9714
Memory Partition 1: 
Cache L2_bank_002:
MSHR contents

Cache L2_bank_003:
MSHR contents

In Dram Latency Queue (total = 0): 
DRAM[1]: 16 bks, busW=4 BL=8 CL=12, tRRD=2 tCCD=6, tRCD=12 tRAS=28 tRP=12 tRC=40
n_cmd=352634 n_nop=206336 n_act=20880 n_pre=20864 n_req=52277 n_rd=53354 n_write=51200 bw_util=0.593
n_activity=340333 dram_eff=0.6144
bk0: 3330a 231502i bk1: 3334a 228508i bk2: 3328a 230130i bk3: 3332a 228718i bk4: 3328a 229405i bk5: 3332a 228224i bk6: 3362a 224309i bk7: 3368a 223986i bk8: 3328a 229896i bk9: 3334a 227393i bk10: 3328a 231084i bk11: 3332a 230647i bk12: 3330a 228007i bk13: 3328a 227163i bk14: 3328a 224849i bk15: 3332a 224603i 
dram_util_bins: 0 0 0 0 0 0 0 0 0 0
dram_eff_bins: 0 0 0 0 0 0 0 0 0 0
mrqq: max=16 avg=14.736
Memory Partition 2: 
Cache L2_bank_004:
MSHR contents

Cache L2_bank_005:
MSHR contents

In Dram Latency Queue (total = 0): 
DRAM[2]: 16 bks, busW=4 BL=8 CL=12, tRRD=2 tCCD=6, tRCD=12 tRAS=28 tRP=12 tRC=40
n_cmd=352634 n_nop=206470 n_act=20812 n_pre=20796 n_req=52278 n_rd=53356 n_write=51200 bw_util=0.593
n_activity=339237 dram_eff=0.6164
bk0: 3330a 229473i bk1: 3332a 228590i bk2: 3336a 227120i bk3: 3328a 230068i bk4: 3332a 228604i bk5: 3328a 226913i bk6: 3366a 222957i bk7: 3366a 222868i bk8: 3338a 228982i bk9: 3328a 227271i bk10: 3328a 232166i bk11: 3328a 230092i bk12: 3332a 227700i bk13: 3328a 227315i bk14: 3328a 223279i bk15: 3328a 223141i 
dram_util_bins: 0 0 0 0 0 0 0 0 0 0
dram_eff_bins: 0 0 0 0 0 0 0 0 0 0
mrqq: max=16 avg=15.0315
Memory Partition 3: 
Cache L2_bank_006:
MSHR contents

Cache L2_bank_007:
MSHR contents

In Dram Latency Queue (total = 0): 
DRAM[3]: 16 bks, busW=4 BL=8 CL=12, tRRD=2 tCCD=6, tRCD=12 tRAS=28 tRP=12 tRC=40
n_cmd=352634 n_nop=205952 n_act=21070 n_pre=21054 n_req=52279 n_rd=53358 n_write=51200 bw_util=0.593
n_activity=340165 dram_eff=0.6147
bk0: 3332a 227943i bk1: 3332a 228875i bk2: 3336a 227928i bk3: 3328a 227617i bk4: 3330a 227725i bk5: 3328a 227398i bk6: 3362a 224679i bk7: 3364a 223142i bk8: 3336a 227480i bk9: 3330a 227798i bk10: 3330a 230458i bk11: 3328a 228275i bk12: 3336a 226732i bk13: 3328a 226596i bk14: 3328a 223407i bk15: 3330a 222524i 
dram_util_bins: 0 0 0 0 0 0 0 0 0 0
dram_eff_bins: 0 0 0 0 0 0 0 0 0 0
mrqq: max=16 avg=14.9743
Memory Partition 4: 
Cache L2_bank_008:
MSHR contents

Cache L2_bank_009:
MSHR contents

In Dram Latency Queue (total = 0): 
DRAM[4]: 16 bks, busW=4 BL=8 CL=12, tRRD=2 tCCD=6, tRCD=12 tRAS=28 tRP=12 tRC=40
n_cmd=352634 n_nop=206502 n_act=20791 n_pre=20775 n_req=52283 n_rd=53366 n_write=51200 bw_util=0.5931
n_activity=339221 dram_eff=0.6165
bk0: 3328a 227705i bk1: 3334a 227821i bk2: 3328a 230715i bk3: 3334a 229196i bk4: 3328a 228774i bk5: 3336a 228131i bk6: 3368a 223907i bk7: 3364a 222197i bk8: 3328a 229405i bk9: 3342a 227783i bk10: 3328a 229812i bk11: 3334a 229777i bk12: 3328a 228736i bk13: 3328a 228363i bk14: 3328a 224410i bk15: 3330a 225088i 
dram_util_bins: 0 0 0 0 0 0 0 0 0 0
dram_eff_bins: 0 0 0 0 0 0 0 0 0 0
mrqq: max=16 avg=15.1019
Memory Partition 5: 
Cache L2_bank_010:
MSHR contents

Cache L2_bank_011:
MSHR contents

In Dram Latency Queue (total = 0): 
DRAM[5]: 16 bks, busW=4 BL=8 CL=12, tRRD=2 tCCD=6, tRCD=12 tRAS=28 tRP=12 tRC=40
n_cmd=352634 n_nop=206120 n_act=20987 n_pre=20971 n_req=52278 n_rd=53356 n_write=51200 bw_util=0.593
n_activity=339910 dram_eff=0.6152
bk0: 3330a 230440i bk1: 3328a 227775i bk2: 3330a 230491i bk3: 3334a 230707i bk4: 3330a 228725i bk5: 3332a 227578i bk6: 3366a 224627i bk7: 3364a 223201i bk8: 3328a 231282i bk9: 3330a 228228i bk10: 3328a 230356i bk11: 3340a 230250i bk12: 3328a 228820i bk13: 3328a 226704i bk14: 3330a 224420i bk15: 3330a 224334i 
dram_util_bins: 0 0 0 0 0 0 0 0 0 0
dram_eff_bins: 0 0 0 0 0 0 0 0 0 0
mrqq: max=16 avg=14.8985

========= L2 cache stats =========
L2_cache_bank[0]: Access = 14503, Miss = 13334, Miss_rate = 0.919, Pending_hits = 11, Reservation_fails = 341
L2_cache_bank[1]: Access = 14329, Miss = 13343, Miss_rate = 0.931, Pending_hits = 1, Reservation_fails = 64
L2_cache_bank[2]: Access = 14329, Miss = 13331, Miss_rate = 0.930, Pending_hits = 3, Reservation_fails = 310
L2_cache_bank[3]: Access = 14344, Miss = 13346, Miss_rate = 0.930, Pending_hits = 6, Reservation_fails = 183
L2_cache_bank[4]: Access = 14329, Miss = 13345, Miss_rate = 0.931, Pending_hits = 0, Reservation_fails = 95
L2_cache_bank[5]: Access = 14358, Miss = 13333, Miss_rate = 0.929, Pending_hits = 8, Reservation_fails = 337
L2_cache_bank[6]: Access = 14329, Miss = 13345, Miss_rate = 0.931, Pending_hits = 1, Reservation_fails = 209
L2_cache_bank[7]: Access = 14358, Miss = 13334, Miss_rate = 0.929, Pending_hits = 6, Reservation_fails = 235
L2_cache_bank[8]: Access = 14328, Miss = 13332, Miss_rate = 0.930, Pending_hits = 4, Reservation_fails = 131
L2_cache_bank[9]: Access = 14358, Miss = 13351, Miss_rate = 0.930, Pending_hits = 4, Reservation_fails = 160
L2_cache_bank[10]: Access = 14328, Miss = 13335, Miss_rate = 0.931, Pending_hits = 3, Reservation_fails = 28
L2_cache_bank[11]: Access = 14328, Miss = 13343, Miss_rate = 0.931, Pending_hits = 1, Reservation_fails = 126
L2_total_cache_accesses = 172221
L2_total_cache_misses = 160072
L2_total_cache_miss_rate = 0.9295
L2_total_cache_pending_hits = 48
L2_total_cache_reservation_fails = 2219
L2_total_cache_breakdown:
	L2_cache_stats_breakdown[GLOBAL_ACC_R][HIT] = 11854
	L2_cache_stats_breakdown[GLOBAL_ACC_R][HIT_RESERVED] = 24
	L2_cache_stats_breakdown[GLOBAL_ACC_R][MISS] = 6461
	L2_cache_stats_breakdown[GLOBAL_ACC_R][RESERVATION_FAIL] = 526
	L2_cache_stats_breakdown[CONST_ACC_R][HIT] = 11
	L2_cache_stats_breakdown[CONST_ACC_R][HIT_RESERVED] = 3
	L2_cache_stats_breakdown[CONST_ACC_R][MISS] = 1
	L2_cache_stats_breakdown[CONST_ACC_R][RESERVATION_FAIL] = 100
	L2_cache_stats_breakdown[GLOBAL_ACC_W][HIT] = 156
	L2_cache_stats_breakdown[GLOBAL_ACC_W][HIT_RESERVED] = 3
	L2_cache_stats_breakdown[GLOBAL_ACC_W][MISS] = 153601
	L2_cache_stats_breakdown[GLOBAL_ACC_W][RESERVATION_FAIL] = 1040
	L2_cache_stats_breakdown[INST_ACC_R][HIT] = 80
	L2_cache_stats_breakdown[INST_ACC_R][HIT_RESERVED] = 18
	L2_cache_stats_breakdown[INST_ACC_R][MISS] = 9
	L2_cache_stats_breakdown[INST_ACC_R][RESERVATION_FAIL] = 553
L2_cache_data_port_util = 0.015
L2_cache_fill_port_util = 0.200

icnt_total_pkts_mem_to_simt=246035
icnt_total_pkts_simt_to_mem=786781
LD_mem_lat_dist  0 0 0 0 0 0 0 0 0 0 0 0 0 0 0 0 0 0 0 0 0 0 0 0 0 0 0
ST_mem_lat_dist  0 0 0 0 0 0 0 0 0 0 0 0 0 0 0 0 0 0 0 0 0 0 0 0 0 0 0
----------------------------Interconnect-DETAILS--------------------------------
Class 0:
Packet latency average = 7.21818
	minimum = 6
	maximum = 20
Network latency average = 7.12424
	minimum = 6
	maximum = 17
Slowest packet = 344119
Flit latency average = 6.57647
	minimum = 6
	maximum = 17
Slowest flit = 1032380
Fragmentation average = 0
	minimum = 0
	maximum = 0
Injected packet rate average = 0.00222263
	minimum = 0 (at node 0)
	maximum = 0.0300055 (at node 9)
Accepted packet rate average = 0.00222263
	minimum = 0 (at node 0)
	maximum = 0.0300055 (at node 9)
Injected flit rate average = 0.00343497
	minimum = 0 (at node 0)
	maximum = 0.0591017 (at node 9)
Accepted flit rate average= 0.00343497
	minimum = 0 (at node 0)
	maximum = 0.0581924 (at node 15)
Injected packet length average = 1.54545
Accepted packet length average = 1.54545
Total in-flight flits = 0 (0 measured)
====== Overall Traffic Statistics ======
====== Traffic class 0 ======
Packet latency average = 25.6411 (2 samples)
	minimum = 6 (2 samples)
	maximum = 433.5 (2 samples)
Network latency average = 19.3596 (2 samples)
	minimum = 6 (2 samples)
	maximum = 327.5 (2 samples)
Flit latency average = 20.7058 (2 samples)
	minimum = 6 (2 samples)
	maximum = 325.5 (2 samples)
Fragmentation average = 0.447927 (2 samples)
	minimum = 0 (2 samples)
	maximum = 222.5 (2 samples)
Injected packet rate average = 0.0254662 (2 samples)
	minimum = 0.021418 (2 samples)
	maximum = 0.0424402 (2 samples)
Accepted packet rate average = 0.0254662 (2 samples)
	minimum = 0.021418 (2 samples)
	maximum = 0.0424402 (2 samples)
Injected flit rate average = 0.0747802 (2 samples)
	minimum = 0.03906 (2 samples)
	maximum = 0.131321 (2 samples)
Accepted flit rate average = 0.0747802 (2 samples)
	minimum = 0.0306479 (2 samples)
	maximum = 0.154375 (2 samples)
Injected packet size average = 2.93644 (2 samples)
Accepted packet size average = 2.93644 (2 samples)
Hops average = 1 (2 samples)
----------------------------END-of-Interconnect-DETAILS-------------------------


gpgpu_simulation_time = 0 days, 0 hrs, 7 min, 3 sec (423 sec)
gpgpu_simulation_rate = 250296 (inst/sec)
gpgpu_simulation_rate = 631 (cycle/sec)
