

        *** GPGPU-Sim Simulator Version 3.2.2  [build 0] ***


GPGPU-Sim PTX: simulation mode 0 (can change with PTX_SIM_MODE_FUNC environment variable:
               1=functional simulation only, 0=detailed performance simulator)
GPGPU-Sim: Configuration options:

-network_mode                           1 # Interconnection network mode
-inter_config_file   config_fermi_islip.icnt # Interconnection network config file
-gpgpu_ptx_use_cuobjdump                    1 # Use cuobjdump to extract ptx and sass from binaries
-gpgpu_experimental_lib_support                    0 # Try to extract code from cuda libraries [Broken because of unknown cudaGetExportTable]
-gpgpu_ptx_convert_to_ptxplus                    0 # Convert SASS (native ISA) to ptxplus and run ptxplus
-gpgpu_ptx_force_max_capability                   20 # Force maximum compute capability
-gpgpu_ptx_inst_debug_to_file                    0 # Dump executed instructions' debug information to file
-gpgpu_ptx_inst_debug_file       inst_debug.txt # Executed instructions' debug output file
-gpgpu_ptx_inst_debug_thread_uid                    1 # Thread UID for executed instructions' debug output
-gpgpu_simd_model                       1 # 1 = post-dominator
-gpgpu_shader_core_pipeline              1536:32 # shader core pipeline config, i.e., {<nthread>:<warpsize>}
-gpgpu_tex_cache:l1  4:128:24,L:R:m:N:L,F:128:4,128:2 # per-shader L1 texture cache  (READ-ONLY) config  {<nsets>:<bsize>:<assoc>,<rep>:<wr>:<alloc>:<wr_alloc>,<mshr>:<N>:<merge>,<mq>:<rf>}
-gpgpu_const_cache:l1 64:64:2,L:R:f:N:L,A:2:32,4 # per-shader L1 constant memory cache  (READ-ONLY) config  {<nsets>:<bsize>:<assoc>,<rep>:<wr>:<alloc>:<wr_alloc>,<mshr>:<N>:<merge>,<mq>} 
-gpgpu_cache:il1     4:128:4,L:R:f:N:L,A:2:32,4 # shader L1 instruction cache config  {<nsets>:<bsize>:<assoc>,<rep>:<wr>:<alloc>:<wr_alloc>,<mshr>:<N>:<merge>,<mq>} 
-gpgpu_cache:dl1     32:128:4,L:L:m:N:H,A:32:8,8 # per-shader L1 data cache config  {<nsets>:<bsize>:<assoc>,<rep>:<wr>:<alloc>:<wr_alloc>,<mshr>:<N>:<merge>,<mq> | none}
-gpgpu_cache:dl1PrefL1                 none # per-shader L1 data cache config  {<nsets>:<bsize>:<assoc>,<rep>:<wr>:<alloc>:<wr_alloc>,<mshr>:<N>:<merge>,<mq> | none}
-gpgpu_cache:dl1PreShared                 none # per-shader L1 data cache config  {<nsets>:<bsize>:<assoc>,<rep>:<wr>:<alloc>:<wr_alloc>,<mshr>:<N>:<merge>,<mq> | none}
-gmem_skip_L1D                          0 # global memory access skip L1D cache (implements -Xptxas -dlcm=cg, default=no skip)
-gpgpu_perfect_mem                      0 # enable perfect memory mode (no cache miss)
-n_regfile_gating_group                    4 # group of lanes that should be read/written together)
-gpgpu_clock_gated_reg_file                    0 # enable clock gated reg file for power calculations
-gpgpu_clock_gated_lanes                    0 # enable clock gated lanes for power calculations
-gpgpu_shader_registers                32768 # Number of registers per shader core. Limits number of concurrent CTAs. (default 8192)
-gpgpu_shader_cta                       8 # Maximum number of concurrent CTAs in shader (default 8)
-gpgpu_num_cta_barriers                   16 # Maximum number of named barriers per CTA (default 16)
-gpgpu_n_clusters                      15 # number of processing clusters
-gpgpu_n_cores_per_cluster                    1 # number of simd cores per cluster
-gpgpu_n_cluster_ejection_buffer_size                    8 # number of packets in ejection buffer
-gpgpu_n_ldst_response_buffer_size                    2 # number of response packets in ld/st unit ejection buffer
-gpgpu_shmem_size                   16384 # Size of shared memory per shader core (default 16kB)
-gpgpu_shmem_size                   49152 # Size of shared memory per shader core (default 16kB)
-gpgpu_shmem_size_PrefL1                16384 # Size of shared memory per shader core (default 16kB)
-gpgpu_shmem_size_PrefShared                16384 # Size of shared memory per shader core (default 16kB)
-gpgpu_shmem_num_banks                   32 # Number of banks in the shared memory in each shader core (default 16)
-gpgpu_shmem_limited_broadcast                    0 # Limit shared memory to do one broadcast per cycle (default on)
-gpgpu_shmem_warp_parts                    1 # Number of portions a warp is divided into for shared memory bank conflict check 
-gpgpu_warpdistro_shader                   -1 # Specify which shader core to collect the warp size distribution from
-gpgpu_warp_issue_shader                    0 # Specify which shader core to collect the warp issue distribution from
-gpgpu_local_mem_map                    1 # Mapping from local memory space address to simulated GPU physical address space (default = enabled)
-gpgpu_num_reg_banks                   16 # Number of register banks (default = 8)
-gpgpu_reg_bank_use_warp_id                    0 # Use warp ID in mapping registers to banks (default = off)
-gpgpu_operand_collector_num_units_sp                    6 # number of collector units (default = 4)
-gpgpu_operand_collector_num_units_sfu                    8 # number of collector units (default = 4)
-gpgpu_operand_collector_num_units_mem                    2 # number of collector units (default = 2)
-gpgpu_operand_collector_num_units_gen                    0 # number of collector units (default = 0)
-gpgpu_operand_collector_num_in_ports_sp                    2 # number of collector unit in ports (default = 1)
-gpgpu_operand_collector_num_in_ports_sfu                    1 # number of collector unit in ports (default = 1)
-gpgpu_operand_collector_num_in_ports_mem                    1 # number of collector unit in ports (default = 1)
-gpgpu_operand_collector_num_in_ports_gen                    0 # number of collector unit in ports (default = 0)
-gpgpu_operand_collector_num_out_ports_sp                    2 # number of collector unit in ports (default = 1)
-gpgpu_operand_collector_num_out_ports_sfu                    1 # number of collector unit in ports (default = 1)
-gpgpu_operand_collector_num_out_ports_mem                    1 # number of collector unit in ports (default = 1)
-gpgpu_operand_collector_num_out_ports_gen                    0 # number of collector unit in ports (default = 0)
-gpgpu_coalesce_arch                   13 # Coalescing arch (default = 13, anything else is off for now)
-gpgpu_num_sched_per_core                    2 # Number of warp schedulers per core
-gpgpu_max_insn_issue_per_warp                    1 # Max number of instructions that can be issued per warp in one cycle by scheduler
-gpgpu_simt_core_sim_order                    1 # Select the simulation order of cores in a cluster (0=Fix, 1=Round-Robin)
-gpgpu_pipeline_widths        2,1,1,2,1,1,2 # Pipeline widths ID_OC_SP,ID_OC_SFU,ID_OC_MEM,OC_EX_SP,OC_EX_SFU,OC_EX_MEM,EX_WB
-gpgpu_num_sp_units                     2 # Number of SP units (default=1)
-gpgpu_num_sfu_units                    1 # Number of SF units (default=1)
-gpgpu_num_mem_units                    1 # Number if ldst units (default=1) WARNING: not hooked up to anything
-gpgpu_scheduler                      gto # Scheduler configuration: < lrr | gto | two_level_active > If two_level_active:<num_active_warps>:<inner_prioritization>:<outer_prioritization>For complete list of prioritization values see shader.h enum scheduler_prioritization_typeDefault: gto
-gpgpu_dram_scheduler                    1 # 0 = fifo, 1 = FR-FCFS (defaul)
-gpgpu_dram_partition_queues              8:8:8:8 # i2$:$2d:d2$:$2i
-l2_ideal                               0 # Use a ideal L2 cache that always hit
-gpgpu_cache:dl2     64:128:8,L:B:m:W:L,A:32:4,4:0,32 # unified banked L2 data cache config  {<nsets>:<bsize>:<assoc>,<rep>:<wr>:<alloc>:<wr_alloc>,<mshr>:<N>:<merge>,<mq>}
-gpgpu_cache:dl2_texture_only                    0 # L2 cache used for texture only
-gpgpu_n_mem                            6 # number of memory modules (e.g. memory controllers) in gpu
-gpgpu_n_sub_partition_per_mchannel                    2 # number of memory subpartition in each memory module
-gpgpu_n_mem_per_ctrlr                    2 # number of memory chips per memory controller
-gpgpu_memlatency_stat                   14 # track and display latency statistics 0x2 enables MC, 0x4 enables queue logs
-gpgpu_frfcfs_dram_sched_queue_size                   16 # 0 = unlimited (default); # entries per chip
-gpgpu_dram_return_queue_size                  116 # 0 = unlimited (default); # entries per chip
-gpgpu_dram_buswidth                    4 # default = 4 bytes (8 bytes per cycle at DDR)
-gpgpu_dram_burst_length                    8 # Burst length of each DRAM request (default = 4 data bus cycle)
-dram_data_command_freq_ratio                    4 # Frequency ratio between DRAM data bus and command bus (default = 2 times, i.e. DDR)
-gpgpu_dram_timing_opt nbk=16:CCD=2:RRD=6:RCD=12:RAS=28:RP=12:RC=40: CL=12:WL=4:CDLR=5:WR=12:nbkgrp=4:CCDL=3:RTPL=2 # DRAM timing parameters = {nbk:tCCD:tRRD:tRCD:tRAS:tRP:tRC:CL:WL:tCDLR:tWR:nbkgrp:tCCDL:tRTPL}
-rop_latency                          120 # ROP queue latency (default 85)
-dram_latency                         100 # DRAM latency (default 30)
-gpgpu_mem_addr_mapping dramid@8;00000000.00000000.00000000.00000000.0000RRRR.RRRRRRRR.BBBCCCCB.CCSSSSSS # mapping memory address to dram model {dramid@<start bit>;<memory address map>}
-gpgpu_mem_addr_test                    0 # run sweep test to check address mapping for aliased address
-gpgpu_mem_address_mask                    1 # 0 = old addressing mask, 1 = new addressing mask, 2 = new add. mask + flipped bank sel and chip sel bits
-gpuwattch_xml_file  gpuwattch_gtx480.xml # GPUWattch XML file
-power_simulation_enabled                    1 # Turn on power simulator (1=On, 0=Off)
-power_per_cycle_dump                    0 # Dump detailed power output each cycle
-power_trace_enabled                    0 # produce a file for the power trace (1=On, 0=Off)
-power_trace_zlevel                     6 # Compression level of the power trace output log (0=no comp, 9=highest)
-steady_power_levels_enabled                    0 # produce a file for the steady power levels (1=On, 0=Off)
-steady_state_definition                  8:4 # allowed deviation:number of samples
-gpgpu_max_cycle                        0 # terminates gpu simulation early (0 = no limit)
-gpgpu_max_insn                         0 # terminates gpu simulation early (0 = no limit)
-gpgpu_max_cta                          0 # terminates gpu simulation early (0 = no limit)
-gpgpu_runtime_stat                   500 # display runtime statistics such as dram utilization {<freq>:<flag>}
-liveness_message_freq                    1 # Minimum number of seconds between simulation liveness messages (0 = always print)
-gpgpu_flush_l1_cache                    0 # Flush L1 cache at the end of each kernel call
-gpgpu_flush_l2_cache                    0 # Flush L2 cache at the end of each kernel call
-gpgpu_deadlock_detect                    1 # Stop the simulation at deadlock (1=on (default), 0=off)
-gpgpu_ptx_instruction_classification                    0 # if enabled will classify ptx instruction types per kernel (Max 255 kernels now)
-gpgpu_ptx_sim_mode                     0 # Select between Performance (default) or Functional simulation (1)
-gpgpu_clock_domains 700.0:700.0:700.0:924.0 # Clock Domain Frequencies in MhZ {<Core Clock>:<ICNT Clock>:<L2 Clock>:<DRAM Clock>}
-gpgpu_max_concurrent_kernel                    8 # maximum kernels that can run concurrently on GPU
-gpgpu_cflog_interval                    0 # Interval between each snapshot in control flow logger
-visualizer_enabled                     0 # Turn on visualizer output (1=On, 0=Off)
-visualizer_outputfile                 NULL # Specifies the output log file for visualizer
-visualizer_zlevel                      6 # Compression level of the visualizer output log (0=no comp, 9=highest)
-trace_enabled                          0 # Turn on traces
-trace_components                    none # comma seperated list of traces to enable. Complete list found in trace_streams.tup. Default none
-trace_sampling_core                    0 # The core which is printed using CORE_DPRINTF. Default 0
-trace_sampling_memory_partition                   -1 # The memory partition which is printed using MEMPART_DPRINTF. Default -1 (i.e. all)
-enable_ptx_file_line_stats                    1 # Turn on PTX source line statistic profiling. (1 = On)
-ptx_line_stats_filename gpgpu_inst_stats.txt # Output file for PTX source line statistics.
-save_embedded_ptx                      0 # saves ptx files embedded in binary as <n>.ptx
-keep                                   0 # keep intermediate files created by GPGPU-Sim when interfacing with external programs
-gpgpu_ptx_save_converted_ptxplus                    0 # Saved converted ptxplus to a file
-ptx_opcode_latency_int         4,13,4,5,145 # Opcode latencies for integers <ADD,MAX,MUL,MAD,DIV>Default 1,1,19,25,145
-ptx_opcode_latency_fp          4,13,4,5,39 # Opcode latencies for single precision floating points <ADD,MAX,MUL,MAD,DIV>Default 1,1,1,1,30
-ptx_opcode_latency_dp         8,19,8,8,330 # Opcode latencies for double precision floating points <ADD,MAX,MUL,MAD,DIV>Default 8,8,8,8,335
-ptx_opcode_initiation_int            1,2,2,1,8 # Opcode initiation intervals for integers <ADD,MAX,MUL,MAD,DIV>Default 1,1,4,4,32
-ptx_opcode_initiation_fp            1,2,1,1,4 # Opcode initiation intervals for single precision floating points <ADD,MAX,MUL,MAD,DIV>Default 1,1,1,1,5
-ptx_opcode_initiation_dp         8,16,8,8,130 # Opcode initiation intervals for double precision floating points <ADD,MAX,MUL,MAD,DIV>Default 8,8,8,8,130
DRAM Timing Options:
nbk                                    16 # number of banks
CCD                                     2 # column to column delay
RRD                                     6 # minimal delay between activation of rows in different banks
RCD                                    12 # row to column delay
RAS                                    28 # time needed to activate row
RP                                     12 # time needed to precharge (deactivate) row
RC                                     40 # row cycle time
CDLR                                    5 # switching from write to read (changes tWTR)
WR                                     12 # last data-in to row precharge
CL                                     12 # CAS latency
WL                                      4 # Write latency
nbkgrp                                  4 # number of bank groups
CCDL                                    3 # column to column delay between accesses to different bank groups
RTPL                                    2 # read to precharge delay between accesses to different bank groups
Total number of memory sub partition = 12
addr_dec_mask[CHIP]  = 0000000000000000 	high:64 low:0
addr_dec_mask[BK]    = 000000000000e100 	high:16 low:8
addr_dec_mask[ROW]   = 000000000fff0000 	high:28 low:16
addr_dec_mask[COL]   = 0000000000001eff 	high:13 low:0
addr_dec_mask[BURST] = 000000000000003f 	high:6 low:0
sub_partition_id_mask = 0000000000000100
GPGPU-Sim uArch: clock freqs: 700000000.000000:700000000.000000:700000000.000000:924000000.000000
GPGPU-Sim uArch: clock periods: 0.00000000142857142857:0.00000000142857142857:0.00000000142857142857:0.00000000108225108225
*** Initializing Memory Statistics ***
GPGPU-Sim uArch: interconnect node map (shaderID+MemID to icntID)
GPGPU-Sim uArch: Memory nodes ID start from index: 15
GPGPU-Sim uArch:    0   1   2   3   4
GPGPU-Sim uArch:    5   6   7   8   9
GPGPU-Sim uArch:   10  11  12  13  14
GPGPU-Sim uArch:   15  16  17  18  19
GPGPU-Sim uArch:   20  21  22  23  24
GPGPU-Sim uArch:   25  26
GPGPU-Sim uArch: interconnect node reverse map (icntID to shaderID+MemID)
GPGPU-Sim uArch: Memory nodes start from ID: 15
GPGPU-Sim uArch:    0   1   2   3   4
GPGPU-Sim uArch:    5   6   7   8   9
GPGPU-Sim uArch:   10  11  12  13  14
GPGPU-Sim uArch:   15  16  17  18  19
GPGPU-Sim uArch:   20  21  22  23  24
GPGPU-Sim uArch:   25  26
18aec1faa4c11e5b2221ddadaa1b1753  /home/bing/cu_learn/im2col/src/bin/main
GPGPU-Sim uArch: performance model initialization complete.
GPGPU-Sim PTX: __cudaRegisterFatBinary, fat_cubin_handle = 1, filename=/home/bing/cu_learn/im2col/src/col2im.cu
self exe links to: /home/bing/cu_learn/im2col/src/bin/main
Running md5sum using "md5sum /home/bing/cu_learn/im2col/src/bin/main "
Running cuobjdump using "$CUDA_INSTALL_PATH/bin/cuobjdump -ptx -elf -sass /home/bing/cu_learn/im2col/src/bin/main > _cuobjdump_complete_output_58q8dk"
Parsing file _cuobjdump_complete_output_58q8dk
######### cuobjdump parser ########
## Adding new section ELF
Adding arch: sm_20
Adding identifier: /home/bing/cu_learn/im2col/src/col2im.cu
## Adding new section PTX
Adding ptx filename: _cuobjdump_1.ptx
Adding arch: sm_20
Adding identifier: /home/bing/cu_learn/im2col/src/col2im.cu
## Adding new section ELF
Adding arch: sm_20
Adding identifier: /home/bing/cu_learn/im2col/src/cuda_conv.cu
## Adding new section PTX
Adding ptx filename: _cuobjdump_2.ptx
Adding arch: sm_20
Adding identifier: /home/bing/cu_learn/im2col/src/cuda_conv.cu
## Adding new section ELF
Adding arch: sm_20
Adding identifier: /home/bing/cu_learn/im2col/src/fc.cu
## Adding new section PTX
Adding ptx filename: _cuobjdump_3.ptx
Adding arch: sm_20
Adding identifier: /home/bing/cu_learn/im2col/src/fc.cu
## Adding new section ELF
Adding arch: sm_20
Adding identifier: /home/bing/cu_learn/im2col/src/im2col.cu
## Adding new section PTX
Adding ptx filename: _cuobjdump_4.ptx
Adding arch: sm_20
Adding identifier: /home/bing/cu_learn/im2col/src/im2col.cu
## Adding new section ELF
Adding arch: sm_20
Adding identifier: /home/bing/cu_learn/im2col/src/pooling.cu
## Adding new section PTX
Adding ptx filename: _cuobjdump_5.ptx
Adding arch: sm_20
Adding identifier: /home/bing/cu_learn/im2col/src/pooling.cu
## Adding new section ELF
Adding arch: sm_20
Adding identifier: /home/bing/cu_learn/im2col/src/sigmoid.cu
## Adding new section PTX
Adding ptx filename: _cuobjdump_6.ptx
Adding arch: sm_20
Adding identifier: /home/bing/cu_learn/im2col/src/sigmoid.cu
Done parsing!!!
GPGPU-Sim PTX: __cudaRegisterFunction _Z17col2im_gpu_kernelIdEviPKT_iiiiiiiiPS0_ : hostFun 0x0x401580, fat_cubin_handle = 1
GPGPU-Sim PTX: instruction assembly for function '_Z17col2im_gpu_kernelIfEviPKT_iiiiiiiiPS0_'...   done.
GPGPU-Sim PTX: finding reconvergence points for '_Z17col2im_gpu_kernelIfEviPKT_iiiiiiiiPS0_'...
GPGPU-Sim PTX: Finding dominators for '_Z17col2im_gpu_kernelIfEviPKT_iiiiiiiiPS0_'...
GPGPU-Sim PTX: Finding immediate dominators for '_Z17col2im_gpu_kernelIfEviPKT_iiiiiiiiPS0_'...
GPGPU-Sim PTX: Finding postdominators for '_Z17col2im_gpu_kernelIfEviPKT_iiiiiiiiPS0_'...
GPGPU-Sim PTX: Finding immediate postdominators for '_Z17col2im_gpu_kernelIfEviPKT_iiiiiiiiPS0_'...
GPGPU-Sim PTX: pre-decoding instructions for '_Z17col2im_gpu_kernelIfEviPKT_iiiiiiiiPS0_'...
GPGPU-Sim PTX: reconvergence points for _Z17col2im_gpu_kernelIfEviPKT_iiiiiiiiPS0_...
GPGPU-Sim PTX:  1 (potential) branch divergence @  PC=0x040 (_1.ptx:79) @%p1 bra $Lt_0_4866;
GPGPU-Sim PTX:    immediate post dominator      @  PC=0x338 (_1.ptx:195) exit;
GPGPU-Sim PTX:  2 (potential) branch divergence @  PC=0x0d0 (_1.ptx:99) @%p2 bra $Lt_0_5890;
GPGPU-Sim PTX:    immediate post dominator      @  PC=0x100 (_1.ptx:108) div.s32 %r21, %r6, %r15;
GPGPU-Sim PTX:  3 (potential) branch divergence @  PC=0x0f0 (_1.ptx:104) bra.uni $Lt_0_5634;
GPGPU-Sim PTX:    immediate post dominator      @  PC=0x100 (_1.ptx:108) div.s32 %r21, %r6, %r15;
GPGPU-Sim PTX:  4 (potential) branch divergence @  PC=0x120 (_1.ptx:112) @%p3 bra $Lt_0_6402;
GPGPU-Sim PTX:    immediate post dominator      @  PC=0x150 (_1.ptx:122) mov.s32 %r27, %r26;
GPGPU-Sim PTX:  5 (potential) branch divergence @  PC=0x140 (_1.ptx:117) bra.uni $Lt_0_6146;
GPGPU-Sim PTX:    immediate post dominator      @  PC=0x150 (_1.ptx:122) mov.s32 %r27, %r26;
GPGPU-Sim PTX:  6 (potential) branch divergence @  PC=0x178 (_1.ptx:127) @%p4 bra $Lt_0_9218;
GPGPU-Sim PTX:    immediate post dominator      @  PC=0x310 (_1.ptx:188) st.global.f32 [%rd5+0], %f1;
GPGPU-Sim PTX:  7 (potential) branch divergence @  PC=0x250 (_1.ptx:157) @!%p5 bra $Lt_0_7426;
GPGPU-Sim PTX:    immediate post dominator      @  PC=0x2e8 (_1.ptx:180) add.s32 %r27, %r27, 1;
GPGPU-Sim PTX:  8 (potential) branch divergence @  PC=0x2e0 (_1.ptx:178) @%p6 bra $Lt_0_7938;
GPGPU-Sim PTX:    immediate post dominator      @  PC=0x2e8 (_1.ptx:180) add.s32 %r27, %r27, 1;
GPGPU-Sim PTX:  9 (potential) branch divergence @  PC=0x2f8 (_1.ptx:182) @%p7 bra $Lt_0_7170;
GPGPU-Sim PTX:    immediate post dominator      @  PC=0x300 (_1.ptx:183) bra.uni $Lt_0_6658;
GPGPU-Sim PTX: 10 (potential) branch divergence @  PC=0x300 (_1.ptx:183) bra.uni $Lt_0_6658;
GPGPU-Sim PTX:    immediate post dominator      @  PC=0x310 (_1.ptx:188) st.global.f32 [%rd5+0], %f1;
GPGPU-Sim PTX: 11 (potential) branch divergence @  PC=0x330 (_1.ptx:192) @%p8 bra $Lt_0_5378;
GPGPU-Sim PTX:    immediate post dominator      @  PC=0x338 (_1.ptx:195) exit;
GPGPU-Sim PTX: ... end of reconvergence points for _Z17col2im_gpu_kernelIfEviPKT_iiiiiiiiPS0_
GPGPU-Sim PTX: ... done pre-decoding instructions for '_Z17col2im_gpu_kernelIfEviPKT_iiiiiiiiPS0_'.
GPGPU-Sim PTX: instruction assembly for function '_Z17col2im_gpu_kernelIdEviPKT_iiiiiiiiPS0_'...   done.
GPGPU-Sim PTX: finding reconvergence points for '_Z17col2im_gpu_kernelIdEviPKT_iiiiiiiiPS0_'...
GPGPU-Sim PTX: Finding dominators for '_Z17col2im_gpu_kernelIdEviPKT_iiiiiiiiPS0_'...
GPGPU-Sim PTX: Finding immediate dominators for '_Z17col2im_gpu_kernelIdEviPKT_iiiiiiiiPS0_'...
GPGPU-Sim PTX: Finding postdominators for '_Z17col2im_gpu_kernelIdEviPKT_iiiiiiiiPS0_'...
GPGPU-Sim PTX: Finding immediate postdominators for '_Z17col2im_gpu_kernelIdEviPKT_iiiiiiiiPS0_'...
GPGPU-Sim PTX: pre-decoding instructions for '_Z17col2im_gpu_kernelIdEviPKT_iiiiiiiiPS0_'...
GPGPU-Sim PTX: reconvergence points for _Z17col2im_gpu_kernelIdEviPKT_iiiiiiiiPS0_...
GPGPU-Sim PTX:  1 (potential) branch divergence @  PC=0x380 (_1.ptx:227) @%p1 bra $Lt_1_4866;
GPGPU-Sim PTX:    immediate post dominator      @  PC=0x678 (_1.ptx:343) exit;
GPGPU-Sim PTX:  2 (potential) branch divergence @  PC=0x410 (_1.ptx:247) @%p2 bra $Lt_1_5890;
GPGPU-Sim PTX:    immediate post dominator      @  PC=0x440 (_1.ptx:256) div.s32 %r21, %r6, %r15;
GPGPU-Sim PTX:  3 (potential) branch divergence @  PC=0x430 (_1.ptx:252) bra.uni $Lt_1_5634;
GPGPU-Sim PTX:    immediate post dominator      @  PC=0x440 (_1.ptx:256) div.s32 %r21, %r6, %r15;
GPGPU-Sim PTX:  4 (potential) branch divergence @  PC=0x460 (_1.ptx:260) @%p3 bra $Lt_1_6402;
GPGPU-Sim PTX:    immediate post dominator      @  PC=0x490 (_1.ptx:270) mov.s32 %r27, %r26;
GPGPU-Sim PTX:  5 (potential) branch divergence @  PC=0x480 (_1.ptx:265) bra.uni $Lt_1_6146;
GPGPU-Sim PTX:    immediate post dominator      @  PC=0x490 (_1.ptx:270) mov.s32 %r27, %r26;
GPGPU-Sim PTX:  6 (potential) branch divergence @  PC=0x4b8 (_1.ptx:275) @%p4 bra $Lt_1_9218;
GPGPU-Sim PTX:    immediate post dominator      @  PC=0x650 (_1.ptx:336) st.global.f64 [%rd5+0], %fd1;
GPGPU-Sim PTX:  7 (potential) branch divergence @  PC=0x590 (_1.ptx:305) @!%p5 bra $Lt_1_7426;
GPGPU-Sim PTX:    immediate post dominator      @  PC=0x628 (_1.ptx:328) add.s32 %r27, %r27, 1;
GPGPU-Sim PTX:  8 (potential) branch divergence @  PC=0x620 (_1.ptx:326) @%p6 bra $Lt_1_7938;
GPGPU-Sim PTX:    immediate post dominator      @  PC=0x628 (_1.ptx:328) add.s32 %r27, %r27, 1;
GPGPU-Sim PTX:  9 (potential) branch divergence @  PC=0x638 (_1.ptx:330) @%p7 bra $Lt_1_7170;
GPGPU-Sim PTX:    immediate post dominator      @  PC=0x640 (_1.ptx:331) bra.uni $Lt_1_6658;
GPGPU-Sim PTX: 10 (potential) branch divergence @  PC=0x640 (_1.ptx:331) bra.uni $Lt_1_6658;
GPGPU-Sim PTX:    immediate post dominator      @  PC=0x650 (_1.ptx:336) st.global.f64 [%rd5+0], %fd1;
GPGPU-Sim PTX: 11 (potential) branch divergence @  PC=0x670 (_1.ptx:340) @%p8 bra $Lt_1_5378;
GPGPU-Sim PTX:    immediate post dominator      @  PC=0x678 (_1.ptx:343) exit;
GPGPU-Sim PTX: ... end of reconvergence points for _Z17col2im_gpu_kernelIdEviPKT_iiiiiiiiPS0_
GPGPU-Sim PTX: ... done pre-decoding instructions for '_Z17col2im_gpu_kernelIdEviPKT_iiiiiiiiPS0_'.
GPGPU-Sim PTX: finished parsing EMBEDDED .ptx file _1.ptx
Adding _cuobjdump_1.ptx with cubin handle 1
GPGPU-Sim PTX: extracting embedded .ptx to temporary file "_ptx_KATPY8"
Running: cat _ptx_KATPY8 | sed 's/.version 1.5/.version 1.4/' | sed 's/, texmode_independent//' | sed 's/\(\.extern \.const\[1\] .b8 \w\+\)\[\]/\1\[1\]/' | sed 's/const\[.\]/const\[0\]/g' > _ptx2_o6HzJX
GPGPU-Sim PTX: generating ptxinfo using "$CUDA_INSTALL_PATH/bin/ptxas --gpu-name=sm_20 -v _ptx2_o6HzJX --output-file  /dev/null 2> _ptx_KATPY8info"
GPGPU-Sim PTX: Kernel '_Z17col2im_gpu_kernelIdEviPKT_iiiiiiiiPS0_' : regs=23, lmem=0, smem=0, cmem=88
GPGPU-Sim PTX: Kernel '_Z17col2im_gpu_kernelIfEviPKT_iiiiiiiiPS0_' : regs=21, lmem=0, smem=0, cmem=88
GPGPU-Sim PTX: removing ptxinfo using "rm -f _ptx_KATPY8 _ptx2_o6HzJX _ptx_KATPY8info"
GPGPU-Sim PTX: loading globals with explicit initializers... 
GPGPU-Sim PTX: finished loading globals (0 bytes total).
GPGPU-Sim PTX: loading constants with explicit initializers...  done.
GPGPU-Sim PTX: __cudaRegisterFunction _Z17col2im_gpu_kernelIfEviPKT_iiiiiiiiPS0_ : hostFun 0x0x401590, fat_cubin_handle = 1
GPGPU-Sim PTX: __cudaRegisterFatBinary, fat_cubin_handle = 2, filename=/home/bing/cu_learn/im2col/src/cuda_conv.cu
GPGPU-Sim PTX: __cudaRegisterFatBinary, fat_cubin_handle = 3, filename=/home/bing/cu_learn/im2col/src/fc.cu
GPGPU-Sim PTX: __cudaRegisterFunction _Z15fcbp_gpu_kernelPfS_S_S_S_S_S_ii : hostFun 0x0x401d30, fat_cubin_handle = 3
GPGPU-Sim PTX: instruction assembly for function '_Z13fc_gpu_kernelPfS_S_S_iii'...   done.
GPGPU-Sim PTX: finding reconvergence points for '_Z13fc_gpu_kernelPfS_S_S_iii'...
GPGPU-Sim PTX: Finding dominators for '_Z13fc_gpu_kernelPfS_S_S_iii'...
GPGPU-Sim PTX: Finding immediate dominators for '_Z13fc_gpu_kernelPfS_S_S_iii'...
GPGPU-Sim PTX: Finding postdominators for '_Z13fc_gpu_kernelPfS_S_S_iii'...
GPGPU-Sim PTX: Finding immediate postdominators for '_Z13fc_gpu_kernelPfS_S_S_iii'...
GPGPU-Sim PTX: pre-decoding instructions for '_Z13fc_gpu_kernelPfS_S_S_iii'...
GPGPU-Sim PTX: reconvergence points for _Z13fc_gpu_kernelPfS_S_S_iii...
GPGPU-Sim PTX:  1 (potential) branch divergence @  PC=0x718 (_3.ptx:85) @%p1 bra $Lt_0_2306;
GPGPU-Sim PTX:    immediate post dominator      @  PC=0x868 (_3.ptx:135) exit;
GPGPU-Sim PTX:  2 (potential) branch divergence @  PC=0x738 (_3.ptx:89) @%p2 bra $Lt_0_3842;
GPGPU-Sim PTX:    immediate post dominator      @  PC=0x810 (_3.ptx:122) mul.lo.s32 %r26, %r11, %r10;
GPGPU-Sim PTX:  3 (potential) branch divergence @  PC=0x7f8 (_3.ptx:116) @%p3 bra $Lt_0_3330;
GPGPU-Sim PTX:    immediate post dominator      @  PC=0x800 (_3.ptx:117) bra.uni $Lt_0_2818;
GPGPU-Sim PTX:  4 (potential) branch divergence @  PC=0x800 (_3.ptx:117) bra.uni $Lt_0_2818;
GPGPU-Sim PTX:    immediate post dominator      @  PC=0x810 (_3.ptx:122) mul.lo.s32 %r26, %r11, %r10;
GPGPU-Sim PTX: ... end of reconvergence points for _Z13fc_gpu_kernelPfS_S_S_iii
GPGPU-Sim PTX: ... done pre-decoding instructions for '_Z13fc_gpu_kernelPfS_S_S_iii'.
GPGPU-Sim PTX: instruction assembly for function '_Z15fcbp_gpu_kernelPfS_S_S_S_S_S_ii'...   done.
GPGPU-Sim PTX: finding reconvergence points for '_Z15fcbp_gpu_kernelPfS_S_S_S_S_S_ii'...
GPGPU-Sim PTX: Finding dominators for '_Z15fcbp_gpu_kernelPfS_S_S_S_S_S_ii'...
GPGPU-Sim PTX: Finding immediate dominators for '_Z15fcbp_gpu_kernelPfS_S_S_S_S_S_ii'...
GPGPU-Sim PTX: Finding postdominators for '_Z15fcbp_gpu_kernelPfS_S_S_S_S_S_ii'...
GPGPU-Sim PTX: Finding immediate postdominators for '_Z15fcbp_gpu_kernelPfS_S_S_S_S_S_ii'...
GPGPU-Sim PTX: pre-decoding instructions for '_Z15fcbp_gpu_kernelPfS_S_S_S_S_S_ii'...
GPGPU-Sim PTX: reconvergence points for _Z15fcbp_gpu_kernelPfS_S_S_S_S_S_ii...
GPGPU-Sim PTX:  1 (potential) branch divergence @  PC=0x898 (_3.ptx:161) @%p1 bra $Lt_1_11778;
GPGPU-Sim PTX:    immediate post dominator      @  PC=0x9e0 (_3.ptx:211) mov.s32 %r13, %r6;
GPGPU-Sim PTX:  2 (potential) branch divergence @  PC=0x8c8 (_3.ptx:169) @!%p2 bra $Lt_1_6914;
GPGPU-Sim PTX:    immediate post dominator      @  PC=0x9b0 (_3.ptx:202) add.s32 %r7, %r7, 1;
GPGPU-Sim PTX:  3 (potential) branch divergence @  PC=0x9a8 (_3.ptx:200) @%p3 bra $Lt_1_7426;
GPGPU-Sim PTX:    immediate post dominator      @  PC=0x9b0 (_3.ptx:202) add.s32 %r7, %r7, 1;
GPGPU-Sim PTX:  4 (potential) branch divergence @  PC=0x9c0 (_3.ptx:204) @%p4 bra $Lt_1_6658;
GPGPU-Sim PTX:    immediate post dominator      @  PC=0x9c8 (_3.ptx:205) bra.uni $Lt_1_6146;
GPGPU-Sim PTX:  5 (potential) branch divergence @  PC=0x9c8 (_3.ptx:205) bra.uni $Lt_1_6146;
GPGPU-Sim PTX:    immediate post dominator      @  PC=0x9e0 (_3.ptx:211) mov.s32 %r13, %r6;
GPGPU-Sim PTX:  6 (potential) branch divergence @  PC=0x9e8 (_3.ptx:212) @!%p2 bra $Lt_1_8194;
GPGPU-Sim PTX:    immediate post dominator      @  PC=0xa80 (_3.ptx:235) ld.param.u64 %rd21, [__cudaparm__Z15fcbp_gpu_kernelPfS_S_S_S_S_S_ii_dx];
GPGPU-Sim PTX:  7 (potential) branch divergence @  PC=0xa78 (_3.ptx:233) @%p5 bra $Lt_1_8706;
GPGPU-Sim PTX:    immediate post dominator      @  PC=0xa80 (_3.ptx:235) ld.param.u64 %rd21, [__cudaparm__Z15fcbp_gpu_kernelPfS_S_S_S_S_S_ii_dx];
GPGPU-Sim PTX:  8 (potential) branch divergence @  PC=0xa98 (_3.ptx:238) @%p6 bra $Lt_1_9730;
GPGPU-Sim PTX:    immediate post dominator      @  PC=0xbd0 (_3.ptx:289) exit;
GPGPU-Sim PTX:  9 (potential) branch divergence @  PC=0xab0 (_3.ptx:242) @%p7 bra $Lt_1_9730;
GPGPU-Sim PTX:    immediate post dominator      @  PC=0xbd0 (_3.ptx:289) exit;
GPGPU-Sim PTX: 10 (potential) branch divergence @  PC=0xaf8 (_3.ptx:253) @!%p8 bra $Lt_1_12802;
GPGPU-Sim PTX:    immediate post dominator      @  PC=0xba8 (_3.ptx:281) st.global.f32 [%rd25+0], %f8;
GPGPU-Sim PTX: 11 (potential) branch divergence @  PC=0xb90 (_3.ptx:275) @%p9 bra $Lt_1_11010;
GPGPU-Sim PTX:    immediate post dominator      @  PC=0xb98 (_3.ptx:276) bra.uni $Lt_1_10498;
GPGPU-Sim PTX: 12 (potential) branch divergence @  PC=0xb98 (_3.ptx:276) bra.uni $Lt_1_10498;
GPGPU-Sim PTX:    immediate post dominator      @  PC=0xba8 (_3.ptx:281) st.global.f32 [%rd25+0], %f8;
GPGPU-Sim PTX: 13 (potential) branch divergence @  PC=0xbc8 (_3.ptx:285) @%p10 bra $Lt_1_10242;
GPGPU-Sim PTX:    immediate post dominator      @  PC=0xbd0 (_3.ptx:289) exit;
GPGPU-Sim PTX: ... end of reconvergence points for _Z15fcbp_gpu_kernelPfS_S_S_S_S_S_ii
GPGPU-Sim PTX: ... done pre-decoding instructions for '_Z15fcbp_gpu_kernelPfS_S_S_S_S_S_ii'.
GPGPU-Sim PTX: finished parsing EMBEDDED .ptx file _3.ptx
Adding _cuobjdump_3.ptx with cubin handle 3
GPGPU-Sim PTX: extracting embedded .ptx to temporary file "_ptx_z7dgRM"
Running: cat _ptx_z7dgRM | sed 's/.version 1.5/.version 1.4/' | sed 's/, texmode_independent//' | sed 's/\(\.extern \.const\[1\] .b8 \w\+\)\[\]/\1\[1\]/' | sed 's/const\[.\]/const\[0\]/g' > _ptx2_By1ZYB
GPGPU-Sim PTX: generating ptxinfo using "$CUDA_INSTALL_PATH/bin/ptxas --gpu-name=sm_20 -v _ptx2_By1ZYB --output-file  /dev/null 2> _ptx_z7dgRMinfo"
GPGPU-Sim PTX: Kernel '_Z15fcbp_gpu_kernelPfS_S_S_S_S_S_ii' : regs=16, lmem=0, smem=0, cmem=96
GPGPU-Sim PTX: Kernel '_Z13fc_gpu_kernelPfS_S_S_iii' : regs=14, lmem=0, smem=0, cmem=76
GPGPU-Sim PTX: removing ptxinfo using "rm -f _ptx_z7dgRM _ptx2_By1ZYB _ptx_z7dgRMinfo"
GPGPU-Sim PTX: loading globals with explicit initializers... 
GPGPU-Sim PTX: finished loading globals (0 bytes total).
GPGPU-Sim PTX: loading constants with explicit initializers...  done.
GPGPU-Sim PTX: __cudaRegisterFunction _Z13fc_gpu_kernelPfS_S_S_iii : hostFun 0x0x401e40, fat_cubin_handle = 3
GPGPU-Sim PTX: __cudaRegisterFatBinary, fat_cubin_handle = 4, filename=/home/bing/cu_learn/im2col/src/im2col.cu
GPGPU-Sim PTX: __cudaRegisterFunction _Z17im2col_gpu_kernelIdEviPKT_iiiiiiiPS0_ : hostFun 0x0x4030f0, fat_cubin_handle = 4
GPGPU-Sim PTX: instruction assembly for function '_Z17im2col_gpu_kernelIfEviPKT_iiiiiiiPS0_'...   done.
GPGPU-Sim PTX: finding reconvergence points for '_Z17im2col_gpu_kernelIfEviPKT_iiiiiiiPS0_'...
GPGPU-Sim PTX: Finding dominators for '_Z17im2col_gpu_kernelIfEviPKT_iiiiiiiPS0_'...
GPGPU-Sim PTX: Finding immediate dominators for '_Z17im2col_gpu_kernelIfEviPKT_iiiiiiiPS0_'...
GPGPU-Sim PTX: Finding postdominators for '_Z17im2col_gpu_kernelIfEviPKT_iiiiiiiPS0_'...
GPGPU-Sim PTX: Finding immediate postdominators for '_Z17im2col_gpu_kernelIfEviPKT_iiiiiiiPS0_'...
GPGPU-Sim PTX: pre-decoding instructions for '_Z17im2col_gpu_kernelIfEviPKT_iiiiiiiPS0_'...
GPGPU-Sim PTX: reconvergence points for _Z17im2col_gpu_kernelIfEviPKT_iiiiiiiPS0_...
GPGPU-Sim PTX:  1 (potential) branch divergence @  PC=0xc18 (_4.ptx:78) @%p1 bra $Lt_0_6146;
GPGPU-Sim PTX:    immediate post dominator      @  PC=0xeb8 (_4.ptx:177) exit;
GPGPU-Sim PTX:  2 (potential) branch divergence @  PC=0xcc8 (_4.ptx:103) @!%p2 bra $Lt_0_6914;
GPGPU-Sim PTX:    immediate post dominator      @  PC=0xea0 (_4.ptx:172) add.u32 %r6, %r6, %r11;
GPGPU-Sim PTX:  3 (potential) branch divergence @  PC=0xdc0 (_4.ptx:139) @!%p3 bra $Lt_0_10242;
GPGPU-Sim PTX:    immediate post dominator      @  PC=0xe48 (_4.ptx:160) st.global.f32 [%rd12+0], %f1;
GPGPU-Sim PTX:  4 (potential) branch divergence @  PC=0xde0 (_4.ptx:143) @%p4 bra $Lt_0_10242;
GPGPU-Sim PTX:    immediate post dominator      @  PC=0xe48 (_4.ptx:160) st.global.f32 [%rd12+0], %f1;
GPGPU-Sim PTX:  5 (potential) branch divergence @  PC=0xdf0 (_4.ptx:145) @%p5 bra $Lt_0_10242;
GPGPU-Sim PTX:    immediate post dominator      @  PC=0xe48 (_4.ptx:160) st.global.f32 [%rd12+0], %f1;
GPGPU-Sim PTX:  6 (potential) branch divergence @  PC=0xe00 (_4.ptx:147) @%p6 bra $Lt_0_10242;
GPGPU-Sim PTX:    immediate post dominator      @  PC=0xe48 (_4.ptx:160) st.global.f32 [%rd12+0], %f1;
GPGPU-Sim PTX:  7 (potential) branch divergence @  PC=0xe38 (_4.ptx:155) bra.uni $L_0_4866;
GPGPU-Sim PTX:    immediate post dominator      @  PC=0xe48 (_4.ptx:160) st.global.f32 [%rd12+0], %f1;
GPGPU-Sim PTX:  8 (potential) branch divergence @  PC=0xe68 (_4.ptx:164) @%p7 bra $Lt_0_8194;
GPGPU-Sim PTX:    immediate post dominator      @  PC=0xe70 (_4.ptx:165) mul.lo.u64 %rd16, %rd10, %rd9;
GPGPU-Sim PTX:  9 (potential) branch divergence @  PC=0xe98 (_4.ptx:170) @%p8 bra $Lt_0_7426;
GPGPU-Sim PTX:    immediate post dominator      @  PC=0xea0 (_4.ptx:172) add.u32 %r6, %r6, %r11;
GPGPU-Sim PTX: 10 (potential) branch divergence @  PC=0xeb0 (_4.ptx:174) @%p9 bra $Lt_0_6658;
GPGPU-Sim PTX:    immediate post dominator      @  PC=0xeb8 (_4.ptx:177) exit;
GPGPU-Sim PTX: ... end of reconvergence points for _Z17im2col_gpu_kernelIfEviPKT_iiiiiiiPS0_
GPGPU-Sim PTX: ... done pre-decoding instructions for '_Z17im2col_gpu_kernelIfEviPKT_iiiiiiiPS0_'.
GPGPU-Sim PTX: instruction assembly for function '_Z17im2col_gpu_kernelIdEviPKT_iiiiiiiPS0_'...   done.
GPGPU-Sim PTX: finding reconvergence points for '_Z17im2col_gpu_kernelIdEviPKT_iiiiiiiPS0_'...
GPGPU-Sim PTX: Finding dominators for '_Z17im2col_gpu_kernelIdEviPKT_iiiiiiiPS0_'...
GPGPU-Sim PTX: Finding immediate dominators for '_Z17im2col_gpu_kernelIdEviPKT_iiiiiiiPS0_'...
GPGPU-Sim PTX: Finding postdominators for '_Z17im2col_gpu_kernelIdEviPKT_iiiiiiiPS0_'...
GPGPU-Sim PTX: Finding immediate postdominators for '_Z17im2col_gpu_kernelIdEviPKT_iiiiiiiPS0_'...
GPGPU-Sim PTX: pre-decoding instructions for '_Z17im2col_gpu_kernelIdEviPKT_iiiiiiiPS0_'...
GPGPU-Sim PTX: reconvergence points for _Z17im2col_gpu_kernelIdEviPKT_iiiiiiiPS0_...
GPGPU-Sim PTX:  1 (potential) branch divergence @  PC=0xf00 (_4.ptx:208) @%p1 bra $Lt_1_6146;
GPGPU-Sim PTX:    immediate post dominator      @  PC=0x11a0 (_4.ptx:307) exit;
GPGPU-Sim PTX:  2 (potential) branch divergence @  PC=0xfb0 (_4.ptx:233) @!%p2 bra $Lt_1_6914;
GPGPU-Sim PTX:    immediate post dominator      @  PC=0x1188 (_4.ptx:302) add.u32 %r6, %r6, %r11;
GPGPU-Sim PTX:  3 (potential) branch divergence @  PC=0x10a8 (_4.ptx:269) @!%p3 bra $Lt_1_10242;
GPGPU-Sim PTX:    immediate post dominator      @  PC=0x1130 (_4.ptx:290) st.global.f64 [%rd12+0], %fd1;
GPGPU-Sim PTX:  4 (potential) branch divergence @  PC=0x10c8 (_4.ptx:273) @%p4 bra $Lt_1_10242;
GPGPU-Sim PTX:    immediate post dominator      @  PC=0x1130 (_4.ptx:290) st.global.f64 [%rd12+0], %fd1;
GPGPU-Sim PTX:  5 (potential) branch divergence @  PC=0x10d8 (_4.ptx:275) @%p5 bra $Lt_1_10242;
GPGPU-Sim PTX:    immediate post dominator      @  PC=0x1130 (_4.ptx:290) st.global.f64 [%rd12+0], %fd1;
GPGPU-Sim PTX:  6 (potential) branch divergence @  PC=0x10e8 (_4.ptx:277) @%p6 bra $Lt_1_10242;
GPGPU-Sim PTX:    immediate post dominator      @  PC=0x1130 (_4.ptx:290) st.global.f64 [%rd12+0], %fd1;
GPGPU-Sim PTX:  7 (potential) branch divergence @  PC=0x1120 (_4.ptx:285) bra.uni $L_1_4866;
GPGPU-Sim PTX:    immediate post dominator      @  PC=0x1130 (_4.ptx:290) st.global.f64 [%rd12+0], %fd1;
GPGPU-Sim PTX:  8 (potential) branch divergence @  PC=0x1150 (_4.ptx:294) @%p7 bra $Lt_1_8194;
GPGPU-Sim PTX:    immediate post dominator      @  PC=0x1158 (_4.ptx:295) mul.lo.u64 %rd16, %rd10, %rd9;
GPGPU-Sim PTX:  9 (potential) branch divergence @  PC=0x1180 (_4.ptx:300) @%p8 bra $Lt_1_7426;
GPGPU-Sim PTX:    immediate post dominator      @  PC=0x1188 (_4.ptx:302) add.u32 %r6, %r6, %r11;
GPGPU-Sim PTX: 10 (potential) branch divergence @  PC=0x1198 (_4.ptx:304) @%p9 bra $Lt_1_6658;
GPGPU-Sim PTX:    immediate post dominator      @  PC=0x11a0 (_4.ptx:307) exit;
GPGPU-Sim PTX: ... end of reconvergence points for _Z17im2col_gpu_kernelIdEviPKT_iiiiiiiPS0_
GPGPU-Sim PTX: ... done pre-decoding instructions for '_Z17im2col_gpu_kernelIdEviPKT_iiiiiiiPS0_'.
GPGPU-Sim PTX: finished parsing EMBEDDED .ptx file _4.ptx
Adding _cuobjdump_4.ptx with cubin handle 4
GPGPU-Sim PTX: extracting embedded .ptx to temporary file "_ptx_z4qulr"
Running: cat _ptx_z4qulr | sed 's/.version 1.5/.version 1.4/' | sed 's/, texmode_independent//' | sed 's/\(\.extern \.const\[1\] .b8 \w\+\)\[\]/\1\[1\]/' | sed 's/const\[.\]/const\[0\]/g' > _ptx2_iv3AKg
GPGPU-Sim PTX: generating ptxinfo using "$CUDA_INSTALL_PATH/bin/ptxas --gpu-name=sm_20 -v _ptx2_iv3AKg --output-file  /dev/null 2> _ptx_z4qulrinfo"
GPGPU-Sim PTX: Kernel '_Z17im2col_gpu_kernelIdEviPKT_iiiiiiiPS0_' : regs=23, lmem=0, smem=0, cmem=88
GPGPU-Sim PTX: Kernel '_Z17im2col_gpu_kernelIfEviPKT_iiiiiiiPS0_' : regs=21, lmem=0, smem=0, cmem=88
GPGPU-Sim PTX: removing ptxinfo using "rm -f _ptx_z4qulr _ptx2_iv3AKg _ptx_z4qulrinfo"
GPGPU-Sim PTX: loading globals with explicit initializers... 
GPGPU-Sim PTX: finished loading globals (0 bytes total).
GPGPU-Sim PTX: loading constants with explicit initializers...  done.
GPGPU-Sim PTX: __cudaRegisterFunction _Z17im2col_gpu_kernelIfEviPKT_iiiiiiiPS0_ : hostFun 0x0x403100, fat_cubin_handle = 4
GPGPU-Sim PTX: __cudaRegisterFatBinary, fat_cubin_handle = 5, filename=/home/bing/cu_learn/im2col/src/pooling.cu
GPGPU-Sim PTX: __cudaRegisterFunction _Z14MaxPoolForwardIfEviPKT_iiiiiiiiPS0_Pi : hostFun 0x0x403990, fat_cubin_handle = 5
GPGPU-Sim PTX: allocating stack frame region for .param "__cudaretf_printf" from 0x0 to 0x4
GPGPU-Sim PTX: allocating stack frame region for .param "__cudaparmf1_printf" from 0x4 to 0xc
GPGPU-Sim PTX: allocating stack frame region for .param "__cudaretf_vprintf" from 0x0 to 0x4
GPGPU-Sim PTX: allocating stack frame region for .param "__cudaparmf1_vprintf" from 0x4 to 0xc
GPGPU-Sim PTX: allocating stack frame region for .param "__cudaparmf2_vprintf" from 0xc to 0x14
GPGPU-Sim PTX: allocating global region for "__constant845" from 0x100 to 0x11c (global memory space)
GPGPU-Sim PTX: allocating global region for "__constant847" from 0x180 to 0x18d (global memory space)
GPGPU-Sim PTX: allocating global region for "__constant848" from 0x200 to 0x21e (global memory space)
GPGPU-Sim PTX: allocating global region for "__constant850" from 0x280 to 0x294 (global memory space)
GPGPU-Sim PTX: allocating stack frame region for .local "__cuda___cuda__temp__valist_array_42_2464" from 0x0 to 0x10
GPGPU-Sim PTX: allocating stack frame region for .param "__cudaparma1_vprintf" from 0x10 to 0x18
GPGPU-Sim PTX: allocating stack frame region for .param "__cudaparma2_vprintf" from 0x18 to 0x20
GPGPU-Sim PTX: instruction assembly for function '_Z14MaxPoolForwardIfEviPKT_iiiiiiiiPS0_Pi'...   done.
GPGPU-Sim PTX: finding reconvergence points for '_Z14MaxPoolForwardIfEviPKT_iiiiiiiiPS0_Pi'...
GPGPU-Sim PTX: Finding dominators for '_Z14MaxPoolForwardIfEviPKT_iiiiiiiiPS0_Pi'...
GPGPU-Sim PTX: Finding immediate dominators for '_Z14MaxPoolForwardIfEviPKT_iiiiiiiiPS0_Pi'...
GPGPU-Sim PTX: Finding postdominators for '_Z14MaxPoolForwardIfEviPKT_iiiiiiiiPS0_Pi'...
GPGPU-Sim PTX: Finding immediate postdominators for '_Z14MaxPoolForwardIfEviPKT_iiiiiiiiPS0_Pi'...
GPGPU-Sim PTX: pre-decoding instructions for '_Z14MaxPoolForwardIfEviPKT_iiiiiiiiPS0_Pi'...
GPGPU-Sim PTX: reconvergence points for _Z14MaxPoolForwardIfEviPKT_iiiiiiiiPS0_Pi...
GPGPU-Sim PTX:  1 (potential) branch divergence @  PC=0x1210 (_5.ptx:98) @%p1 bra $Lt_0_4098;
GPGPU-Sim PTX:    immediate post dominator      @  PC=0x1560 (_5.ptx:225) exit;
GPGPU-Sim PTX:  2 (potential) branch divergence @  PC=0x1380 (_5.ptx:149) @%p2 bra $Lt_0_7938;
GPGPU-Sim PTX:    immediate post dominator      @  PC=0x1528 (_5.ptx:215) st.f32 [%rd8+0], %f1;
GPGPU-Sim PTX:  3 (potential) branch divergence @  PC=0x1438 (_5.ptx:175) @!%p3 bra $Lt_0_5634;
GPGPU-Sim PTX:    immediate post dominator      @  PC=0x14f8 (_5.ptx:206) add.s32 %r26, %r26, 1;
GPGPU-Sim PTX:  4 (potential) branch divergence @  PC=0x14c8 (_5.ptx:196) @!%p4 bra $Lt_0_6402;
GPGPU-Sim PTX:    immediate post dominator      @  PC=0x14e0 (_5.ptx:202) add.s32 %r44, %r44, 1;
GPGPU-Sim PTX:  5 (potential) branch divergence @  PC=0x14f0 (_5.ptx:204) @%p5 bra $Lt_0_6146;
GPGPU-Sim PTX:    immediate post dominator      @  PC=0x14f8 (_5.ptx:206) add.s32 %r26, %r26, 1;
GPGPU-Sim PTX:  6 (potential) branch divergence @  PC=0x1508 (_5.ptx:208) @%p6 bra $Lt_0_5378;
GPGPU-Sim PTX:    immediate post dominator      @  PC=0x1510 (_5.ptx:209) bra.uni $Lt_0_4866;
GPGPU-Sim PTX:  7 (potential) branch divergence @  PC=0x1510 (_5.ptx:209) bra.uni $Lt_0_4866;
GPGPU-Sim PTX:    immediate post dominator      @  PC=0x1528 (_5.ptx:215) st.f32 [%rd8+0], %f1;
GPGPU-Sim PTX:  8 (potential) branch divergence @  PC=0x1558 (_5.ptx:222) @%p7 bra $Lt_0_4610;
GPGPU-Sim PTX:    immediate post dominator      @  PC=0x1560 (_5.ptx:225) exit;
GPGPU-Sim PTX: ... end of reconvergence points for _Z14MaxPoolForwardIfEviPKT_iiiiiiiiPS0_Pi
GPGPU-Sim PTX: ... done pre-decoding instructions for '_Z14MaxPoolForwardIfEviPKT_iiiiiiiiPS0_Pi'.
GPGPU-Sim PTX: finished parsing EMBEDDED .ptx file _5.ptx
Adding _cuobjdump_5.ptx with cubin handle 5
GPGPU-Sim PTX: extracting embedded .ptx to temporary file "_ptx_neuzz6"
Running: cat _ptx_neuzz6 | sed 's/.version 1.5/.version 1.4/' | sed 's/, texmode_independent//' | sed 's/\(\.extern \.const\[1\] .b8 \w\+\)\[\]/\1\[1\]/' | sed 's/const\[.\]/const\[0\]/g' > _ptx2_1d3ypW
GPGPU-Sim PTX: generating ptxinfo using "$CUDA_INSTALL_PATH/bin/ptxas --gpu-name=sm_20 -v _ptx2_1d3ypW --output-file  /dev/null 2> _ptx_neuzz6info"
GPGPU-Sim PTX: Kernel '_Z14MaxPoolForwardIfEviPKT_iiiiiiiiPS0_Pi' : regs=47, lmem=0, smem=0, cmem=128
GPGPU-Sim PTX: removing ptxinfo using "rm -f _ptx_neuzz6 _ptx2_1d3ypW _ptx_neuzz6info"
GPGPU-Sim PTX: loading globals with explicit initializers... 
GPGPU-Sim PTX:     initializing '__constant845' ...  wrote 28 bytes
GPGPU-Sim PTX:     initializing '__constant847' ...  wrote 13 bytes
GPGPU-Sim PTX:     initializing '__constant848' ...  wrote 30 bytes
GPGPU-Sim PTX:     initializing '__constant850' ...  wrote 20 bytes
GPGPU-Sim PTX: finished loading globals (91 bytes total).
GPGPU-Sim PTX: loading constants with explicit initializers...  done.
GPGPU-Sim PTX: __cudaRegisterFatBinary, fat_cubin_handle = 6, filename=/home/bing/cu_learn/im2col/src/sigmoid.cu
GPGPU-Sim PTX: __cudaRegisterFunction _Z14SigmoidForwardIfEviPKT_PS0_ : hostFun 0x0x403fd0, fat_cubin_handle = 6
GPGPU-Sim PTX: instruction assembly for function '_Z11ReLUForwardIfEviPKT_PS0_'...   done.
GPGPU-Sim PTX: finding reconvergence points for '_Z11ReLUForwardIfEviPKT_PS0_'...
GPGPU-Sim PTX: Finding dominators for '_Z11ReLUForwardIfEviPKT_PS0_'...
GPGPU-Sim PTX: Finding immediate dominators for '_Z11ReLUForwardIfEviPKT_PS0_'...
GPGPU-Sim PTX: Finding postdominators for '_Z11ReLUForwardIfEviPKT_PS0_'...
GPGPU-Sim PTX: Finding immediate postdominators for '_Z11ReLUForwardIfEviPKT_PS0_'...
GPGPU-Sim PTX: pre-decoding instructions for '_Z11ReLUForwardIfEviPKT_PS0_'...
GPGPU-Sim PTX: reconvergence points for _Z11ReLUForwardIfEviPKT_PS0_...
GPGPU-Sim PTX:  1 (potential) branch divergence @  PC=0x15a8 (_6.ptx:71) @%p1 bra $Lt_0_1794;
GPGPU-Sim PTX:    immediate post dominator      @  PC=0x1648 (_6.ptx:96) exit;
GPGPU-Sim PTX:  2 (potential) branch divergence @  PC=0x1640 (_6.ptx:93) @%p2 bra $Lt_0_2306;
GPGPU-Sim PTX:    immediate post dominator      @  PC=0x1648 (_6.ptx:96) exit;
GPGPU-Sim PTX: ... end of reconvergence points for _Z11ReLUForwardIfEviPKT_PS0_
GPGPU-Sim PTX: ... done pre-decoding instructions for '_Z11ReLUForwardIfEviPKT_PS0_'.
GPGPU-Sim PTX: instruction assembly for function '_Z14SigmoidForwardIfEviPKT_PS0_'...   done.
GPGPU-Sim PTX: finding reconvergence points for '_Z14SigmoidForwardIfEviPKT_PS0_'...
GPGPU-Sim PTX: Finding dominators for '_Z14SigmoidForwardIfEviPKT_PS0_'...
GPGPU-Sim PTX: Finding immediate dominators for '_Z14SigmoidForwardIfEviPKT_PS0_'...
GPGPU-Sim PTX: Finding postdominators for '_Z14SigmoidForwardIfEviPKT_PS0_'...
GPGPU-Sim PTX: Finding immediate postdominators for '_Z14SigmoidForwardIfEviPKT_PS0_'...
GPGPU-Sim PTX: pre-decoding instructions for '_Z14SigmoidForwardIfEviPKT_PS0_'...
GPGPU-Sim PTX: reconvergence points for _Z14SigmoidForwardIfEviPKT_PS0_...
GPGPU-Sim PTX:  1 (potential) branch divergence @  PC=0x1690 (_6.ptx:121) @%p1 bra $Lt_1_4354;
GPGPU-Sim PTX:    immediate post dominator      @  PC=0x1aa0 (_6.ptx:284) exit;
GPGPU-Sim PTX:  2 (potential) branch divergence @  PC=0x1720 (_6.ptx:142) @!%p2 bra $Lt_1_5378;
GPGPU-Sim PTX:    immediate post dominator      @  PC=0x1a50 (_6.ptx:272) mov.f64 %fd73, 0d3fe0000000000000;// 0.5
GPGPU-Sim PTX:  3 (potential) branch divergence @  PC=0x1850 (_6.ptx:191) @%p3 bra $Lt_1_5890;
GPGPU-Sim PTX:    immediate post dominator      @  PC=0x18e8 (_6.ptx:218) mov.f64 %fd42, 0d3ff0000000000000;// 1
GPGPU-Sim PTX:  4 (potential) branch divergence @  PC=0x1870 (_6.ptx:196) bra.uni $Lt_1_5634;
GPGPU-Sim PTX:    immediate post dominator      @  PC=0x18e8 (_6.ptx:218) mov.f64 %fd42, 0d3ff0000000000000;// 1
GPGPU-Sim PTX:  5 (potential) branch divergence @  PC=0x1888 (_6.ptx:200) @%p4 bra $Lt_1_6402;
GPGPU-Sim PTX:    immediate post dominator      @  PC=0x18b0 (_6.ptx:209) mov.s32 %r18, 0;
GPGPU-Sim PTX:  6 (potential) branch divergence @  PC=0x18a0 (_6.ptx:204) bra.uni $Lt_1_6146;
GPGPU-Sim PTX:    immediate post dominator      @  PC=0x18b0 (_6.ptx:209) mov.s32 %r18, 0;
GPGPU-Sim PTX:  7 (potential) branch divergence @  PC=0x1968 (_6.ptx:234) bra.uni $Lt_1_5122;
GPGPU-Sim PTX:    immediate post dominator      @  PC=0x1a50 (_6.ptx:272) mov.f64 %fd73, 0d3fe0000000000000;// 0.5
GPGPU-Sim PTX:  8 (potential) branch divergence @  PC=0x1a98 (_6.ptx:281) @%p6 bra $Lt_1_4866;
GPGPU-Sim PTX:    immediate post dominator      @  PC=0x1aa0 (_6.ptx:284) exit;
GPGPU-Sim PTX: ... end of reconvergence points for _Z14SigmoidForwardIfEviPKT_PS0_
GPGPU-Sim PTX: ... done pre-decoding instructions for '_Z14SigmoidForwardIfEviPKT_PS0_'.
GPGPU-Sim PTX: finished parsing EMBEDDED .ptx file _6.ptx
Adding _cuobjdump_6.ptx with cubin handle 6
GPGPU-Sim PTX: extracting embedded .ptx to temporary file "_ptx_0qVnzM"
Running: cat _ptx_0qVnzM | sed 's/.version 1.5/.version 1.4/' | sed 's/, texmode_independent//' | sed 's/\(\.extern \.const\[1\] .b8 \w\+\)\[\]/\1\[1\]/' | sed 's/const\[.\]/const\[0\]/g' > _ptx2_gSggJC
GPGPU-Sim PTX: generating ptxinfo using "$CUDA_INSTALL_PATH/bin/ptxas --gpu-name=sm_20 -v _ptx2_gSggJC --output-file  /dev/null 2> _ptx_0qVnzMinfo"
GPGPU-Sim PTX: Kernel '_Z14SigmoidForwardIfEviPKT_PS0_' : regs=26, lmem=0, smem=0, cmem=60
GPGPU-Sim PTX: Kernel '_Z11ReLUForwardIfEviPKT_PS0_' : regs=10, lmem=0, smem=0, cmem=56
GPGPU-Sim PTX: removing ptxinfo using "rm -f _ptx_0qVnzM _ptx2_gSggJC _ptx_0qVnzMinfo"
GPGPU-Sim PTX: loading globals with explicit initializers... 
GPGPU-Sim PTX: finished loading globals (0 bytes total).
GPGPU-Sim PTX: loading constants with explicit initializers...  done.
GPGPU-Sim PTX: __cudaRegisterFunction _Z11ReLUForwardIfEviPKT_PS0_ : hostFun 0x0x403f50, fat_cubin_handle = 6
yl2 new success!
mask yl2 new success!
dev_out malloc success!
pooling.cu images_size 3200
dev_in malloc success!
dev_in memcpy success!
dev_mask malloc success!
t_dev_image success
t_dev_mask success
t_dev_ret success
maxpool_gpu success

GPGPU-Sim PTX: cudaLaunch for 0x0x403990 (mode=performance simulation) on stream 0
GPGPU-Sim PTX: pushing kernel '_Z14MaxPoolForwardIfEviPKT_iiiiiiiiPS0_Pi' to stream 0, gridDim= (2,1,1) blockDim = (512,1,1) 
kernel '_Z14MaxPoolForwardIfEviPKT_iiiiiiiiPS0_Pi' transfer to GPU hardware scheduler
GPGPU-Sim uArch: Shader 1 bind to kernel 1 '_Z14MaxPoolForwardIfEviPKT_iiiiiiiiPS0_Pi'
GPGPU-Sim uArch: CTA/core = 1, limited by: regs
GPGPU-Sim uArch: core:  1, cta: 0 initialized @(1,0)
GPGPU-Sim uArch: Shader 2 bind to kernel 1 '_Z14MaxPoolForwardIfEviPKT_iiiiiiiiPS0_Pi'
GPGPU-Sim uArch: core:  2, cta: 0 initialized @(1,0)
GPGPU-Sim PTX: WARNING (_5.ptx:86) ** reading undefined register '%rd3' (cuid:0). Setting to 0X00000000. This is okay if you are simulating the native ISA
maxpool_gpu_kernel success
maxpool_gpu_kernel success
maxpool_gpu_kernel success
maxpool_gpu_kernel success
maxpool_gpu_kernel success
maxpool_gpu_kernel success
maxpool_gpu_kernel success
maxpool_gpu_kernel success
maxpool_gpu_kernel success
maxpool_gpu_kernel success
maxpool_gpu_kernel success
maxpool_gpu_kernel success
maxpool_gpu_kernel success
maxpool_gpu_kernel success
maxpool_gpu_kernel success
maxpool_gpu_kernel success
maxpool_gpu_kernel success
maxpool_gpu_kernel success
maxpool_gpu_kernel success
maxpool_gpu_kernel success
maxpool_gpu_kernel success
maxpool_gpu_kernel success
maxpool_gpu_kernel success
maxpool_gpu_kernel success
maxpool_gpu_kernel success
maxpool_gpu_kernel success
maxpool_gpu_kernel success
maxpool_gpu_kernel success
maxpool_gpu_kernel success
maxpool_gpu_kernel success
maxpool_gpu_kernel success
maxpool_gpu_kernel success
maxpool_gpu_kernel success
maxpool_gpu_kernel success
maxpool_gpu_kernel success
maxpool_gpu_kernel success
maxpool_gpu_kernel success
maxpool_gpu_kernel success
maxpool_gpu_kernel success
maxpool_gpu_kernel success
maxpool_gpu_kernel success
maxpool_gpu_kernel success
maxpool_gpu_kernel success
maxpool_gpu_kernel success
maxpool_gpu_kernel success
maxpool_gpu_kernel success
maxpool_gpu_kernel success
maxpool_gpu_kernel success
maxpool_gpu_kernel success
maxpool_gpu_kernel success
maxpool_gpu_kernel success
maxpool_gpu_kernel success
maxpool_gpu_kernel success
maxpool_gpu_kernel success
maxpool_gpu_kernel success
maxpool_gpu_kernel success
maxpool_gpu_kernel success
maxpool_gpu_kernel success
maxpool_gpu_kernel success
maxpool_gpu_kernel success
maxpool_gpu_kernel success
maxpool_gpu_kernel success
maxpool_gpu_kernel success
maxpool_gpu_kernel success
maxpool_gpu_kernel success
maxpool_gpu_kernel success
maxpool_gpu_kernel success
maxpool_gpu_kernel success
maxpool_gpu_kernel success
maxpool_gpu_kernel success
maxpool_gpu_kernel success
maxpool_gpu_kernel success
maxpool_gpu_kernel success
maxpool_gpu_kernel success
maxpool_gpu_kernel success
maxpool_gpu_kernel success
maxpool_gpu_kernel success
maxpool_gpu_kernel success
maxpool_gpu_kernel success
maxpool_gpu_kernel success
maxpool_gpu_kernel success
maxpool_gpu_kernel success
maxpool_gpu_kernel success
maxpool_gpu_kernel success
maxpool_gpu_kernel success
maxpool_gpu_kernel success
maxpool_gpu_kernel success
maxpool_gpu_kernel success
maxpool_gpu_kernel success
maxpool_gpu_kernel success
maxpool_gpu_kernel success
maxpool_gpu_kernel success
maxpool_gpu_kernel success
maxpool_gpu_kernel success
maxpool_gpu_kernel success
maxpool_gpu_kernel success
maxpool_gpu_kernel success
maxpool_gpu_kernel success
maxpool_gpu_kernel success
maxpool_gpu_kernel success
maxpool_gpu_kernel success
maxpool_gpu_kernel success
maxpool_gpu_kernel success
maxpool_gpu_kernel success
maxpool_gpu_kernel success
maxpool_gpu_kernel success
maxpool_gpu_kernel success
maxpool_gpu_kernel success
maxpool_gpu_kernel success
maxpool_gpu_kernel success
maxpool_gpu_kernel success
maxpool_gpu_kernel success
maxpool_gpu_kernel success
maxpool_gpu_kernel success
maxpool_gpu_kernel success
maxpool_gpu_kernel success
maxpool_gpu_kernel success
maxpool_gpu_kernel success
maxpool_gpu_kernel success
maxpool_gpu_kernel success
maxpool_gpu_kernel success
maxpool_gpu_kernel success
maxpool_gpu_kernel success
maxpool_gpu_kernel success
maxpool_gpu_kernel success
maxpool_gpu_kernel success
maxpool_gpu_kernel success
maxpool_gpu_kernel success
maxpool_gpu_kernel success
maxpool_gpu_kernel success
maxpool_gpu_kernel success
maxpool_gpu_kernel success
maxpool_gpu_kernel success
maxpool_gpu_kernel success
maxpool_gpu_kernel success
maxpool_gpu_kernel success
maxpool_gpu_kernel success
maxpool_gpu_kernel success
maxpool_gpu_kernel success
maxpool_gpu_kernel success
maxpool_gpu_kernel success
maxpool_gpu_kernel success
maxpool_gpu_kernel success
maxpool_gpu_kernel success
maxpool_gpu_kernel success
maxpool_gpu_kernel success
maxpool_gpu_kernel success
maxpool_gpu_kernel success
maxpool_gpu_kernel success
maxpool_gpu_kernel success
maxpool_gpu_kernel success
maxpool_gpu_kernel success
maxpool_gpu_kernel success
maxpool_gpu_kernel success
maxpool_gpu_kernel success
maxpool_gpu_kernel success
maxpool_gpu_kernel success
maxpool_gpu_kernel success
maxpool_gpu_kernel success
maxpool_gpu_kernel success
maxpool_gpu_kernel success
maxpool_gpu_kernel success
maxpool_gpu_kernel success
maxpool_gpu_kernel success
maxpool_gpu_kernel success
maxpool_gpu_kernel success
maxpool_gpu_kernel success
maxpool_gpu_kernel success
maxpool_gpu_kernel success
maxpool_gpu_kernel success
maxpool_gpu_kernel success
maxpool_gpu_kernel success
maxpool_gpu_kernel success
maxpool_gpu_kernel success
maxpool_gpu_kernel success
maxpool_gpu_kernel success
maxpool_gpu_kernel success
maxpool_gpu_kernel success
maxpool_gpu_kernel success
maxpool_gpu_kernel success
maxpool_gpu_kernel success
maxpool_gpu_kernel success
maxpool_gpu_kernel success
maxpool_gpu_kernel success
maxpool_gpu_kernel success
maxpool_gpu_kernel success
maxpool_gpu_kernel success
maxpool_gpu_kernel success
maxpool_gpu_kernel success
maxpool_gpu_kernel success
maxpool_gpu_kernel success
maxpool_gpu_kernel success
maxpool_gpu_kernel success
maxpool_gpu_kernel success
maxpool_gpu_kernel success
maxpool_gpu_kernel success
maxpool_gpu_kernel success
maxpool_gpu_kernel success
maxpool_gpu_kernel success
maxpool_gpu_kernel success
maxpool_gpu_kernel success
maxpool_gpu_kernel success
maxpool_gpu_kernel success
maxpool_gpu_kernel success
maxpool_gpu_kernel success
maxpool_gpu_kernel success
maxpool_gpu_kernel success
maxpool_gpu_kernel success
maxpool_gpu_kernel success
maxpool_gpu_kernel success
maxpool_gpu_kernel success
maxpool_gpu_kernel success
maxpool_gpu_kernel success
maxpool_gpu_kernel success
maxpool_gpu_kernel success
maxpool_gpu_kernel success
maxpool_gpu_kernel success
maxpool_gpu_kernel success
maxpool_gpu_kernel success
maxpool_gpu_kernel success
maxpool_gpu_kernel success
maxpool_gpu_kernel success
maxpool_gpu_kernel success
maxpool_gpu_kernel success
maxpool_gpu_kernel success
maxpool_gpu_kernel success
maxpool_gpu_kernel success
maxpool_gpu_kernel success
maxpool_gpu_kernel success
maxpool_gpu_kernel success
maxpool_gpu_kernel success
maxpool_gpu_kernel success
maxpool_gpu_kernel success
maxpool_gpu_kernel success
maxpool_gpu_kernel success
maxpool_gpu_kernel success
maxpool_gpu_kernel success
maxpool_gpu_kernel success
maxpool_gpu_kernel success
maxpool_gpu_kernel success
maxpool_gpu_kernel success
maxpool_gpu_kernel success
maxpool_gpu_kernel success
maxpool_gpu_kernel success
maxpool_gpu_kernel success
maxpool_gpu_kernel success
maxpool_gpu_kernel success
maxpool_gpu_kernel success
maxpool_gpu_kernel success
maxpool_gpu_kernel success
maxpool_gpu_kernel success
maxpool_gpu_kernel success
maxpool_gpu_kernel success
maxpool_gpu_kernel success
maxpool_gpu_kernel success
maxpool_gpu_kernel success
maxpool_gpu_kernel success
maxpool_gpu_kernel success
maxpool_gpu_kernel success
maxpool_gpu_kernel success
maxpool_gpu_kernel success
maxpool_gpu_kernel success
maxpool_gpu_kernel success
maxpool_gpu_kernel success
maxpool_gpu_kernel success
maxpool_gpu_kernel success
maxpool_gpu_kernel success
maxpool_gpu_kernel success
maxpool_gpu_kernel success
maxpool_gpu_kernel success
maxpool_gpu_kernel success
maxpool_gpu_kernel success
maxpool_gpu_kernel success
maxpool_gpu_kernel success
maxpool_gpu_kernel success
maxpool_gpu_kernel success
maxpool_gpu_kernel success
maxpool_gpu_kernel success
maxpool_gpu_kernel success
maxpool_gpu_kernel success
maxpool_gpu_kernel success
maxpool_gpu_kernel success
maxpool_gpu_kernel success
maxpool_gpu_kernel success
maxpool_gpu_kernel success
maxpool_gpu_kernel success
maxpool_gpu_kernel success
maxpool_gpu_kernel success
maxpool_gpu_kernel success
maxpool_gpu_kernel success
maxpool_gpu_kernel success
maxpool_gpu_kernel success
maxpool_gpu_kernel success
maxpool_gpu_kernel success
maxpool_gpu_kernel success
maxpool_gpu_kernel success
maxpool_gpu_kernel success
maxpool_gpu_kernel success
maxpool_gpu_kernel success
maxpool_gpu_kernel success
maxpool_gpu_kernel success
maxpool_gpu_kernel success
maxpool_gpu_kernel success
maxpool_gpu_kernel success
maxpool_gpu_kernel success
maxpool_gpu_kernel success
maxpool_gpu_kernel success
maxpool_gpu_kernel success
maxpool_gpu_kernel success
maxpool_gpu_kernel success
maxpool_gpu_kernel success
maxpool_gpu_kernel success
maxpool_gpu_kernel success
maxpool_gpu_kernel success
maxpool_gpu_kernel success
maxpool_gpu_kernel success
maxpool_gpu_kernel success
maxpool_gpu_kernel success
maxpool_gpu_kernel success
maxpool_gpu_kernel success
maxpool_gpu_kernel success
maxpool_gpu_kernel success
maxpool_gpu_kernel success
maxpool_gpu_kernel success
maxpool_gpu_kernel success
maxpool_gpu_kernel success
maxpool_gpu_kernel success
maxpool_gpu_kernel success
maxpool_gpu_kernel success
maxpool_gpu_kernel success
maxpool_gpu_kernel success
maxpool_gpu_kernel success
maxpool_gpu_kernel success
maxpool_gpu_kernel success
maxpool_gpu_kernel success
maxpool_gpu_kernel success
maxpool_gpu_kernel success
maxpool_gpu_kernel success
maxpool_gpu_kernel success
maxpool_gpu_kernel success
maxpool_gpu_kernel success
maxpool_gpu_kernel success
maxpool_gpu_kernel success
maxpool_gpu_kernel success
maxpool_gpu_kernel success
maxpool_gpu_kernel success
maxpool_gpu_kernel success
maxpool_gpu_kernel success
maxpool_gpu_kernel success
maxpool_gpu_kernel success
maxpool_gpu_kernel success
maxpool_gpu_kernel success
maxpool_gpu_kernel success
maxpool_gpu_kernel success
maxpool_gpu_kernel success
maxpool_gpu_kernel success
maxpool_gpu_kernel success
maxpool_gpu_kernel success
maxpool_gpu_kernel success
maxpool_gpu_kernel success
maxpool_gpu_kernel success
maxpool_gpu_kernel success
maxpool_gpu_kernel success
maxpool_gpu_kernel success
maxpool_gpu_kernel success
maxpool_gpu_kernel success
maxpool_gpu_kernel success
maxpool_gpu_kernel success
maxpool_gpu_kernel success
maxpool_gpu_kernel success
maxpool_gpu_kernel success
maxpool_gpu_kernel success
maxpool_gpu_kernel success
maxpool_gpu_kernel success
maxpool_gpu_kernel success
maxpool_gpu_kernel success
maxpool_gpu_kernel success
maxpool_gpu_kernel success
maxpool_gpu_kernel success
maxpool_gpu_kernel success
maxpool_gpu_kernel success
maxpool_gpu_kernel success
maxpool_gpu_kernel success
maxpool_gpu_kernel success
maxpool_gpu_kernel success
maxpool_gpu_kernel success
maxpool_gpu_kernel success
maxpool_gpu_kernel success
maxpool_gpu_kernel success
maxpool_gpu_kernel success
maxpool_gpu_kernel success
maxpool_gpu_kernel success
maxpool_gpu_kernel success
maxpool_gpu_kernel success
maxpool_gpu_kernel success
maxpool_gpu_kernel success
maxpool_gpu_kernel success
maxpool_gpu_kernel success
maxpool_gpu_kernel success
maxpool_gpu_kernel success
maxpool_gpu_kernel success
maxpool_gpu_kernel success
maxpool_gpu_kernel success
maxpool_gpu_kernel success
maxpool_gpu_kernel success
maxpool_gpu_kernel success
maxpool_gpu_kernel success
maxpool_gpu_kernel success
maxpool_gpu_kernel success
maxpool_gpu_kernel success
maxpool_gpu_kernel success
maxpool_gpu_kernel success
maxpool_gpu_kernel success
maxpool_gpu_kernel success
maxpool_gpu_kernel success
maxpool_gpu_kernel success
maxpool_gpu_kernel success
maxpool_gpu_kernel success
maxpool_gpu_kernel success
maxpool_gpu_kernel success
maxpool_gpu_kernel success
maxpool_gpu_kernel success
maxpool_gpu_kernel success
maxpool_gpu_kernel success
maxpool_gpu_kernel success
maxpool_gpu_kernel success
maxpool_gpu_kernel success
maxpool_gpu_kernel success
maxpool_gpu_kernel success
maxpool_gpu_kernel success
maxpool_gpu_kernel success
maxpool_gpu_kernel success
maxpool_gpu_kernel success
maxpool_gpu_kernel success
maxpool_gpu_kernel success
maxpool_gpu_kernel success
maxpool_gpu_kernel success
maxpool_gpu_kernel success
maxpool_gpu_kernel success
maxpool_gpu_kernel success
maxpool_gpu_kernel success
maxpool_gpu_kernel success
maxpool_gpu_kernel success
maxpool_gpu_kernel success
maxpool_gpu_kernel success
maxpool_gpu_kernel success
maxpool_gpu_kernel success
maxpool_gpu_kernel success
maxpool_gpu_kernel success
maxpool_gpu_kernel success
maxpool_gpu_kernel success
maxpool_gpu_kernel success
maxpool_gpu_kernel success
maxpool_gpu_kernel success
maxpool_gpu_kernel success
maxpool_gpu_kernel success
maxpool_gpu_kernel success
maxpool_gpu_kernel success
maxpool_gpu_kernel success
maxpool_gpu_kernel success
maxpool_gpu_kernel success
maxpool_gpu_kernel success
maxpool_gpu_kernel success
maxpool_gpu_kernel success
maxpool_gpu_kernel success
maxpool_gpu_kernel success
maxpool_gpu_kernel success
maxpool_gpu_kernel success
maxpool_gpu_kernel success
maxpool_gpu_kernel success
maxpool_gpu_kernel success
maxpool_gpu_kernel success
maxpool_gpu_kernel success
maxpool_gpu_kernel success
maxpool_gpu_kernel success
maxpool_gpu_kernel success
maxpool_gpu_kernel success
maxpool_gpu_kernel success
maxpool_gpu_kernel success
maxpool_gpu_kernel success
maxpool_gpu_kernel success
maxpool_gpu_kernel success
maxpool_gpu_kernel success
maxpool_gpu_kernel success
maxpool_gpu_kernel success
maxpool_gpu_kernel success
maxpool_gpu_kernel success
maxpool_gpu_kernel success
maxpool_gpu_kernel success
maxpool_gpu_kernel success
maxpool_gpu_kernel success
maxpool_gpu_kernel success
maxpool_gpu_kernel success
maxpool_gpu_kernel success
maxpool_gpu_kernel success
maxpool_gpu_kernel success
maxpool_gpu_kernel success
maxpool_gpu_kernel success
maxpool_gpu_kernel success
maxpool_gpu_kernel success
maxpool_gpu_kernel success
maxpool_gpu_kernel success
maxpool_gpu_kernel success
maxpool_gpu_kernel success
maxpool_gpu_kernel success
maxpool_gpu_kernel success
maxpool_gpu_kernel success
maxpool_gpu_kernel success
maxpool_gpu_kernel success
maxpool_gpu_kernel success
maxpool_gpu_kernel success
maxpool_gpu_kernel success
maxpool_gpu_kernel success
maxpool_gpu_kernel success
maxpool_gpu_kernel success
maxpool_gpu_kernel success
maxpool_gpu_kernel success
maxpool_gpu_kernel success
maxpool_gpu_kernel success
maxpool_gpu_kernel success
maxpool_gpu_kernel success
maxpool_gpu_kernel success
maxpool_gpu_kernel success
maxpool_gpu_kernel success
maxpool_gpu_kernel success
maxpool_gpu_kernel success
maxpool_gpu_kernel success
maxpool_gpu_kernel success
maxpool_gpu_kernel success
maxpool_gpu_kernel success
maxpool_gpu_kernel success
maxpool_gpu_kernel success
maxpool_gpu_kernel success
maxpool_gpu_kernel success
maxpool_gpu_kernel success
maxpool_gpu_kernel success
maxpool_gpu_kernel success
maxpool_gpu_kernel success
maxpool_gpu_kernel success
maxpool_gpu_kernel success
maxpool_gpu_kernel success
maxpool_gpu_kernel success
maxpool_gpu_kernel success
maxpool_gpu_kernel success
maxpool_gpu_kernel success
maxpool_gpu_kernel success
maxpool_gpu_kernel success
maxpool_gpu_kernel success
maxpool_gpu_kernel success
maxpool_gpu_kernel success
maxpool_gpu_kernel success
maxpool_gpu_kernel success
maxpool_gpu_kernel success
maxpool_gpu_kernel success
maxpool_gpu_kernel success
maxpool_gpu_kernel success
maxpool_gpu_kernel success
maxpool_gpu_kernel success
maxpool_gpu_kernel success
maxpool_gpu_kernel success
maxpool_gpu_kernel success
maxpool_gpu_kernel success
maxpool_gpu_kernel success
maxpool_gpu_kernel success
maxpool_gpu_kernel success
maxpool_gpu_kernel success
maxpool_gpu_kernel success
maxpool_gpu_kernel success
maxpool_gpu_kernel success
maxpool_gpu_kernel success
maxpool_gpu_kernel success
maxpool_gpu_kernel success
maxpool_gpu_kernel success
maxpool_gpu_kernel success
maxpool_gpu_kernel success
maxpool_gpu_kernel success
maxpool_gpu_kernel success
maxpool_gpu_kernel success
maxpool_gpu_kernel success
maxpool_gpu_kernel success
maxpool_gpu_kernel success
maxpool_gpu_kernel success
maxpool_gpu_kernel success
maxpool_gpu_kernel success
maxpool_gpu_kernel success
maxpool_gpu_kernel success
maxpool_gpu_kernel success
maxpool_gpu_kernel success
maxpool_gpu_kernel success
maxpool_gpu_kernel success
maxpool_gpu_kernel success
maxpool_gpu_kernel success
maxpool_gpu_kernel success
maxpool_gpu_kernel success
maxpool_gpu_kernel success
maxpool_gpu_kernel success
maxpool_gpu_kernel success
maxpool_gpu_kernel success
maxpool_gpu_kernel success
maxpool_gpu_kernel success
maxpool_gpu_kernel success
maxpool_gpu_kernel success
maxpool_gpu_kernel success
maxpool_gpu_kernel success
maxpool_gpu_kernel success
maxpool_gpu_kernel success
maxpool_gpu_kernel success
maxpool_gpu_kernel success
maxpool_gpu_kernel success
maxpool_gpu_kernel success
maxpool_gpu_kernel success
maxpool_gpu_kernel success
maxpool_gpu_kernel success
maxpool_gpu_kernel success
maxpool_gpu_kernel success
maxpool_gpu_kernel success
maxpool_gpu_kernel success
maxpool_gpu_kernel success
maxpool_gpu_kernel success
maxpool_gpu_kernel success
maxpool_gpu_kernel success
maxpool_gpu_kernel success
maxpool_gpu_kernel success
maxpool_gpu_kernel success
maxpool_gpu_kernel success
maxpool_gpu_kernel success
maxpool_gpu_kernel success
maxpool_gpu_kernel success
maxpool_gpu_kernel success
maxpool_gpu_kernel success
maxpool_gpu_kernel success
maxpool_gpu_kernel success
maxpool_gpu_kernel success
maxpool_gpu_kernel success
maxpool_gpu_kernel success
maxpool_gpu_kernel success
maxpool_gpu_kernel success
maxpool_gpu_kernel success
maxpool_gpu_kernel success
maxpool_gpu_kernel success
maxpool_gpu_kernel success
maxpool_gpu_kernel success
maxpool_gpu_kernel success
maxpool_gpu_kernel success
maxpool_gpu_kernel success
maxpool_gpu_kernel success
maxpool_gpu_kernel success
maxpool_gpu_kernel success
maxpool_gpu_kernel success
maxpool_gpu_kernel success
maxpool_gpu_kernel success
maxpool_gpu_kernel success
maxpool_gpu_kernel success
maxpool_gpu_kernel success
maxpool_gpu_kernel success
maxpool_gpu_kernel success
maxpool_gpu_kernel success
maxpool_gpu_kernel success
maxpool_gpu_kernel success
maxpool_gpu_kernel success
maxpool_gpu_kernel success
maxpool_gpu_kernel success
maxpool_gpu_kernel success
maxpool_gpu_kernel success
maxpool_gpu_kernel success
maxpool_gpu_kernel success
maxpool_gpu_kernel success
maxpool_gpu_kernel success
maxpool_gpu_kernel success
maxpool_gpu_kernel success
maxpool_gpu_kernel success
maxpool_gpu_kernel success
maxpool_gpu_kernel success
maxpool_gpu_kernel success
maxpool_gpu_kernel success
maxpool_gpu_kernel success
maxpool_gpu_kernel success
maxpool_gpu_kernel success
maxpool_gpu_kernel success
maxpool_gpu_kernel success
maxpool_gpu_kernel success
maxpool_gpu_kernel success
maxpool_gpu_kernel success
maxpool_gpu_kernel success
maxpool_gpu_kernel success
maxpool_gpu_kernel success
maxpool_gpu_kernel success
maxpool_gpu_kernel success
maxpool_gpu_kernel success
maxpool_gpu_kernel success
maxpool_gpu_kernel success
maxpool_gpu_kernel success
maxpool_gpu_kernel success
maxpool_gpu_kernel success
maxpool_gpu_kernel success
maxpool_gpu_kernel success
maxpool_gpu_kernel success
maxpool_gpu_kernel success
maxpool_gpu_kernel success
maxpool_gpu_kernel success
maxpool_gpu_kernel success
maxpool_gpu_kernel success
maxpool_gpu_kernel success
maxpool_gpu_kernel success
maxpool_gpu_kernel success
maxpool_gpu_kernel success
maxpool_gpu_kernel success
maxpool_gpu_kernel success
maxpool_gpu_kernel success
maxpool_gpu_kernel success
maxpool_gpu_kernel success
maxpool_gpu_kernel success
maxpool_gpu_kernel success
maxpool_gpu_kernel success
maxpool_gpu_kernel success
maxpool_gpu_kernel success
maxpool_gpu_kernel success
maxpool_gpu_kernel success
maxpool_gpu_kernel success
maxpool_gpu_kernel success
maxpool_gpu_kernel success
maxpool_gpu_kernel success
maxpool_gpu_kernel success
maxpool_gpu_kernel success
maxpool_gpu_kernel success
maxpool_gpu_kernel success
maxpool_gpu_kernel success
maxpool_gpu_kernel success
maxpool_gpu_kernel success
maxpool_gpu_kernel success
maxpool_gpu_kernel success
maxpool_gpu_kernel success
maxpool_gpu_kernel success
maxpool_gpu_kernel success
maxpool_gpu_kernel success
maxpool_gpu_kernel success
maxpool_gpu_kernel success
maxpool_gpu_kernel success
maxpool_gpu_kernel success
maxpool_gpu_kernel success
maxpool_gpu_kernel success
maxpool_gpu_kernel success
maxpool_gpu_kernel success
maxpool_gpu_kernel success
maxpool_gpu_kernel success
maxpool_gpu_kernel success
maxpool_gpu_kernel success
maxpool_gpu_kernel success
maxpool_gpu_kernel success
maxpool_gpu_kernel success
maxpool_gpu_kernel success
maxpool_gpu_kernel success
maxpool_gpu_kernel success
maxpool_gpu_kernel success
maxpool_gpu_kernel success
maxpool_gpu_kernel success
maxpool_gpu_kernel success
maxpool_gpu_kernel success
maxpool_gpu_kernel success
maxpool_gpu_kernel success
maxpool_gpu_kernel success
maxpool_gpu_kernel success
maxpool_gpu_kernel success
maxpool_gpu_kernel success
maxpool_gpu_kernel success
maxpool_gpu_kernel success
maxpool_gpu_kernel success
maxpool_gpu_kernel success
maxpool_gpu_kernel success
maxpool_gpu_kernel success
maxpool_gpu_kernel success
maxpool_gpu_kernel success
maxpool_gpu_kernel success
maxpool_gpu_kernel success
maxpool_gpu_kernel success
maxpool_gpu_kernel success
maxpool_gpu_kernel success
maxpool_gpu_kernel success
maxpool_gpu_kernel success
maxpool_gpu_kernel success
maxpool_gpu_kernel success
maxpool_gpu_kernel success
maxpool_gpu_kernel success
maxpool_gpu_kernel success
maxpool_gpu_kernel success
maxpool_gpu_kernel success
maxpool_gpu_kernel success
maxpool_gpu_kernel success
maxpool_gpu_kernel success
maxpool_gpu_kernel success
maxpool_gpu_kernel success
maxpool_gpu_kernel success
maxpool_gpu_kernel success
maxpool_gpu_kernel success
maxpool_gpu_kernel success
maxpool_gpu_kernel success
maxpool_gpu_kernel success
maxpool_gpu_kernel success
maxpool_gpu_kernel success
maxpool_gpu_kernel success
maxpool_gpu_kernel success
maxpool_gpu_kernel success
maxpool_gpu_kernel success
maxpool_gpu_kernel success
maxpool_gpu_kernel success
maxpool_gpu_kernel success
maxpool_gpu_kernel success
maxpool_gpu_kernel success
maxpool_gpu_kernel success
maxpool_gpu_kernel success
maxpool_gpu_kernel success
maxpool_gpu_kernel success
maxpool_gpu_kernel success
maxpool_gpu_kernel success
maxpool_gpu_kernel success
maxpool_gpu_kernel success
maxpool_gpu_kernel success
maxpool_gpu_kernel success
maxpool_gpu_kernel success
maxpool_gpu_kernel success
maxpool_gpu_kernel success
maxpool_gpu_kernel success
maxpool_gpu_kernel success
maxpool_gpu_kernel success
maxpool_gpu_kernel success
maxpool_gpu_kernel success
maxpool_gpu_kernel success
maxpool_gpu_kernel success
maxpool_gpu_kernel success
maxpool_gpu_kernel success
maxpool_gpu_kernel success
maxpool_gpu_kernel success
GPGPU-Sim uArch: cycles simulated: 500  inst.: 8192 (ipc=16.4) sim_rate=8192 (inst/sec) elapsed = 0:0:00:01 / Thu Jul 19 12:28:28 2018
maxpool_gpu_kernel success
maxpool_gpu_kernel success
maxpool_gpu_kernel success
maxpool_gpu_kernel success
maxpool_gpu_kernel success
maxpool_gpu_kernel success
maxpool_gpu_kernel success
maxpool_gpu_kernel success
maxpool_gpu_kernel success
maxpool_gpu_kernel success
maxpool_gpu_kernel success
maxpool_gpu_kernel success
maxpool_gpu_kernel success
maxpool_gpu_kernel success
maxpool_gpu_kernel success
maxpool_gpu_kernel success
maxpool_gpu_kernel success
maxpool_gpu_kernel success
maxpool_gpu_kernel success
maxpool_gpu_kernel success
maxpool_gpu_kernel success
maxpool_gpu_kernel success
maxpool_gpu_kernel success
maxpool_gpu_kernel success
maxpool_gpu_kernel success
maxpool_gpu_kernel success
maxpool_gpu_kernel success
maxpool_gpu_kernel success
maxpool_gpu_kernel success
maxpool_gpu_kernel success
maxpool_gpu_kernel success
maxpool_gpu_kernel success
maxpool_gpu_kernel success
maxpool_gpu_kernel success
maxpool_gpu_kernel success
maxpool_gpu_kernel success
maxpool_gpu_kernel success
maxpool_gpu_kernel success
maxpool_gpu_kernel success
maxpool_gpu_kernel success
maxpool_gpu_kernel success
maxpool_gpu_kernel success
maxpool_gpu_kernel success
maxpool_gpu_kernel success
maxpool_gpu_kernel success
maxpool_gpu_kernel success
maxpool_gpu_kernel success
maxpool_gpu_kernel success
maxpool_gpu_kernel success
maxpool_gpu_kernel success
maxpool_gpu_kernel success
maxpool_gpu_kernel success
maxpool_gpu_kernel success
maxpool_gpu_kernel success
maxpool_gpu_kernel success
maxpool_gpu_kernel success
maxpool_gpu_kernel success
maxpool_gpu_kernel success
maxpool_gpu_kernel success
maxpool_gpu_kernel success
maxpool_gpu_kernel success
maxpool_gpu_kernel success
maxpool_gpu_kernel success
maxpool_gpu_kernel success
maxpool_gpu_kernel success
maxpool_gpu_kernel success
maxpool_gpu_kernel success
maxpool_gpu_kernel success
maxpool_gpu_kernel success
maxpool_gpu_kernel success
maxpool_gpu_kernel success
maxpool_gpu_kernel success
maxpool_gpu_kernel success
maxpool_gpu_kernel success
maxpool_gpu_kernel success
maxpool_gpu_kernel success
maxpool_gpu_kernel success
maxpool_gpu_kernel success
maxpool_gpu_kernel success
maxpool_gpu_kernel success
maxpool_gpu_kernel success
maxpool_gpu_kernel success
maxpool_gpu_kernel success
maxpool_gpu_kernel success
maxpool_gpu_kernel success
maxpool_gpu_kernel success
maxpool_gpu_kernel success
maxpool_gpu_kernel success
maxpool_gpu_kernel success
maxpool_gpu_kernel success
maxpool_gpu_kernel success
maxpool_gpu_kernel success
maxpool_gpu_kernel success
maxpool_gpu_kernel success
maxpool_gpu_kernel success
maxpool_gpu_kernel success
maxpool_gpu_kernel success
maxpool_gpu_kernel success
maxpool_gpu_kernel success
maxpool_gpu_kernel success
maxpool_gpu_kernel success
maxpool_gpu_kernel success
maxpool_gpu_kernel success
maxpool_gpu_kernel success
maxpool_gpu_kernel success
maxpool_gpu_kernel success
maxpool_gpu_kernel success
maxpool_gpu_kernel success
maxpool_gpu_kernel success
maxpool_gpu_kernel success
maxpool_gpu_kernel success
maxpool_gpu_kernel success
maxpool_gpu_kernel success
maxpool_gpu_kernel success
maxpool_gpu_kernel success
maxpool_gpu_kernel success
maxpool_gpu_kernel success
maxpool_gpu_kernel success
maxpool_gpu_kernel success
maxpool_gpu_kernel success
maxpool_gpu_kernel success
maxpool_gpu_kernel success
maxpool_gpu_kernel success
maxpool_gpu_kernel success
maxpool_gpu_kernel success
maxpool_gpu_kernel success
maxpool_gpu_kernel success
maxpool_gpu_kernel success
maxpool_gpu_kernel success
maxpool_gpu_kernel success
maxpool_gpu_kernel success
maxpool_gpu_kernel success
maxpool_gpu_kernel success
maxpool_gpu_kernel success
maxpool_gpu_kernel success
maxpool_gpu_kernel success
maxpool_gpu_kernel success
maxpool_gpu_kernel success
maxpool_gpu_kernel success
maxpool_gpu_kernel success
maxpool_gpu_kernel success
maxpool_gpu_kernel success
maxpool_gpu_kernel success
maxpool_gpu_kernel success
maxpool_gpu_kernel success
maxpool_gpu_kernel success
maxpool_gpu_kernel success
maxpool_gpu_kernel success
maxpool_gpu_kernel success
maxpool_gpu_kernel success
maxpool_gpu_kernel success
maxpool_gpu_kernel success
maxpool_gpu_kernel success
maxpool_gpu_kernel success
maxpool_gpu_kernel success
maxpool_gpu_kernel success
maxpool_gpu_kernel success
maxpool_gpu_kernel success
maxpool_gpu_kernel success
maxpool_gpu_kernel success
maxpool_gpu_kernel success
maxpool_gpu_kernel success
maxpool_gpu_kernel success
maxpool_gpu_kernel success
maxpool_gpu_kernel success
maxpool_gpu_kernel success
maxpool_gpu_kernel success
maxpool_gpu_kernel success
maxpool_gpu_kernel success
maxpool_gpu_kernel success
maxpool_gpu_kernel success
maxpool_gpu_kernel success
maxpool_gpu_kernel success
maxpool_gpu_kernel success
maxpool_gpu_kernel success
maxpool_gpu_kernel success
maxpool_gpu_kernel success
maxpool_gpu_kernel success
maxpool_gpu_kernel success
maxpool_gpu_kernel success
maxpool_gpu_kernel success
maxpool_gpu_kernel success
maxpool_gpu_kernel success
maxpool_gpu_kernel success
maxpool_gpu_kernel success
maxpool_gpu_kernel success
maxpool_gpu_kernel success
maxpool_gpu_kernel success
maxpool_gpu_kernel success
maxpool_gpu_kernel success
maxpool_gpu_kernel success
maxpool_gpu_kernel success
index is 512
index is 513
index is 514
index is 515
index is 516
index is 517
index is 518
index is 519
index is 520
index is 521
index is 522
index is 523
index is 524
index is 525
index is 526
index is 527
index is 528
index is 529
index is 530
index is 531
index is 532
index is 533
index is 534
index is 535
index is 536
index is 537
index is 538
index is 539
index is 540
index is 541
index is 542
index is 543
index is 576
index is 577
index is 578
index is 579
index is 580
index is 581
index is 582
index is 583
index is 584
index is 585
index is 586
index is 587
index is 588
index is 589
index is 590
index is 591
index is 592
index is 593
index is 594
index is 595
index is 596
index is 597
index is 598
index is 599
index is 600
index is 601
index is 602
index is 603
index is 604
index is 605
index is 606
index is 607
index is 0
index is 1
index is 2
index is 3
index is 4
index is 5
index is 6
index is 7
index is 8
index is 9
index is 10
index is 11
index is 12
index is 13
index is 14
index is 15
index is 16
index is 17
index is 18
index is 19
index is 20
index is 21
index is 22
index is 23
index is 24
index is 25
index is 26
index is 27
index is 28
index is 29
index is 30
index is 31
index is 64
index is 65
index is 66
index is 67
index is 68
index is 69
index is 70
index is 71
index is 72
index is 73
index is 74
index is 75
index is 76
index is 77
index is 78
index is 79
index is 80
index is 81
index is 82
index is 83
index is 84
index is 85
index is 86
index is 87
index is 88
index is 89
index is 90
index is 91
index is 92
index is 93
index is 94
index is 95
index is 640
index is 641
index is 642
index is 643
index is 644
index is 645
index is 646
index is 647
index is 648
index is 649
index is 650
index is 651
index is 652
index is 653
index is 654
index is 655
index is 656
index is 657
index is 658
index is 659
index is 660
index is 661
index is 662
index is 663
index is 664
index is 665
index is 666
index is 667
index is 668
index is 669
index is 670
index is 671
index is 128
index is 129
index is 130
index is 131
index is 132
index is 133
index is 134
index is 135
index is 136
index is 137
index is 138
index is 139
index is 140
index is 141
index is 142
index is 143
index is 144
index is 145
index is 146
index is 147
index is 148
index is 149
index is 150
index is 151
index is 152
index is 153
[...]
gpgpu_stall_shd_mem[g_mem_st][mshr_rc] = 0
gpgpu_stall_shd_mem[g_mem_st][icnt_rc] = 0
gpgpu_stall_shd_mem[g_mem_st][wb_icnt_rc] = 0
gpgpu_stall_shd_mem[g_mem_st][wb_rsrv_fail] = 0
gpgpu_stall_shd_mem[l_mem_ld][mshr_rc] = 0
gpgpu_stall_shd_mem[l_mem_ld][icnt_rc] = 0
gpgpu_stall_shd_mem[l_mem_ld][wb_icnt_rc] = 0
gpgpu_stall_shd_mem[l_mem_ld][wb_rsrv_fail] = 0
gpgpu_stall_shd_mem[l_mem_st][mshr_rc] = 0
gpgpu_stall_shd_mem[l_mem_st][icnt_rc] = 0
gpgpu_stall_shd_mem[l_mem_ld][wb_icnt_rc] = 0
gpgpu_stall_shd_mem[l_mem_ld][wb_rsrv_fail] = 0
gpu_reg_bank_conflict_stalls = 0
Warp Occupancy Distribution:
Stall:6836	W0_Idle:6255	W0_Scoreboard:4474	W1:4	W2:12	W3:8	W4:18	W5:18	W6:20	W7:16	W8:8	W9:14	W10:8	W11:8	W12:2	W13:2	W14:6	W15:2	W16:0	W17:0	W18:0	W19:0	W20:0	W21:0	W22:0	W23:0	W24:0	W25:0	W26:0	W27:0	W28:0	W29:0	W30:0	W31:0	W32:4605
traffic_breakdown_coretomem[CONST_ACC_R] = 16 {8:2,}
traffic_breakdown_coretomem[GLOBAL_ACC_R] = 800 {8:100,}
traffic_breakdown_coretomem[GLOBAL_ACC_W] = 6800 {136:50,}
traffic_breakdown_coretomem[INST_ACC_R] = 128 {8:16,}
traffic_breakdown_coretomem[LOCAL_ACC_W] = 156808 {136:1153,}
traffic_breakdown_memtocore[CONST_ACC_R] = 144 {72:2,}
traffic_breakdown_memtocore[GLOBAL_ACC_R] = 13600 {136:100,}
traffic_breakdown_memtocore[GLOBAL_ACC_W] = 400 {8:50,}
traffic_breakdown_memtocore[INST_ACC_R] = 2176 {136:16,}
traffic_breakdown_memtocore[LOCAL_ACC_W] = 9224 {8:1153,}
maxmrqlatency = 46 
maxdqlatency = 0 
maxmflatency = 466 
averagemflatency = 233 
max_icnt2mem_latency = 88 
max_icnt2sh_latency = 6318 
mrq_lat_table:336 	167 	27 	73 	71 	10 	0 	0 	0 	0 	0 	0 	0 	0 	0 	0 	0 	0 	0 	0 	0 	0 	0 	0 	0 	0 	0 	0 	0 	0 	0 	0 	
dq_lat_table:0 	0 	0 	0 	0 	0 	0 	0 	0 	0 	0 	0 	0 	0 	0 	0 	0 	0 	0 	0 	0 	0 	0 	0 	0 	0 	0 	0 	0 	0 	0 	0 	
mf_lat_table:0 	0 	0 	0 	0 	0 	0 	915 	390 	0 	0 	0 	0 	0 	0 	0 	0 	0 	0 	0 	0 	0 	0 	0 	0 	0 	0 	0 	0 	0 	0 	0 	
icnt2mem_lat_table:0 	0 	0 	58 	104 	199 	960 	0 	0 	0 	0 	0 	0 	0 	0 	0 	0 	0 	0 	0 	0 	0 	0 	0 	
icnt2sh_lat_table:0 	0 	0 	21 	19 	22 	38 	2 	0 	128 	260 	417 	398 	0 	0 	0 	0 	0 	0 	0 	0 	0 	0 	0 	
mf_lat_pw_table:0 	0 	0 	0 	0 	0 	0 	9 	2 	0 	0 	0 	0 	0 	0 	0 	0 	0 	0 	0 	0 	0 	0 	0 	0 	0 	0 	0 	0 	0 	0 	0 	
maximum concurrent accesses to same row:
dram[0]:         1         2         0         0         4         4         8         8         0         0         0         0         0         0         0         0 
dram[1]:         0         5         0         0         4         4         8         8         0         0         0         0         0         0         0         0 
dram[2]:         0        15         0         0         4         8         8        16         0         0         0         0         0         0         0         0 
dram[3]:         0         1         0         0         4         8         8        16         0         0         0         0         0         0         0         0 
dram[4]:         0         0         0         0         4         8         8        16         0         0         0         0         0         0         0         0 
dram[5]:         1         0         0         0         4         8         8        16         0         0         0         0         0         0         0         0 
maximum service time to same row:
dram[0]:      1275       684      1637      1559      2587      2610      3931      4772       713       672         0         0         0         0         0         0 
dram[1]:      1460      1394      1679      1607      2586      2634      3996      3610       744       707         0         0         0         0         0         0 
dram[2]:      1487      1251      1726      1547      2569      2695      4105      3664       774       654         0         0         0         0         0         0 
dram[3]:      1588       947      1822      1565      2823      2637      4279      3736       785       678         0         0         0         0         0         0 
dram[4]:      1257      1263      1529      1571      2917      2608      4563      3915       660       666         0         0         0         0         0         0 
dram[5]:      1031      1269      1535      1582      2638      2604      4624      4065       684       701         0         0         0         0         0         0 
average row accesses per activate:
dram[0]: 10.000000  6.000000  8.000000  8.000000  8.000000  8.000000  6.000000  6.000000  4.000000  4.000000      -nan      -nan      -nan      -nan      -nan      -nan 
dram[1]:  9.000000  3.000000  8.000000  8.000000  8.000000  8.000000  6.000000  6.000000  4.000000  4.000000      -nan      -nan      -nan      -nan      -nan      -nan 
dram[2]: 10.000000  8.500000  8.000000 12.000000  8.000000 11.000000  6.000000 10.000000  4.000000  8.000000      -nan      -nan      -nan      -nan      -nan      -nan 
dram[3]: 10.000000  5.000000  8.000000  8.000000  8.000000 11.000000  6.000000 10.000000  4.000000  8.000000      -nan      -nan      -nan      -nan      -nan      -nan 
dram[4]:  9.000000 10.000000  8.000000  8.000000  8.000000 11.000000  6.000000 10.000000  4.000000  8.000000      -nan      -nan      -nan      -nan      -nan      -nan 
dram[5]:  5.000000  9.000000  8.000000  8.000000  8.000000 12.000000  6.000000  9.000000  4.000000  8.000000      -nan      -nan      -nan      -nan      -nan      -nan 
average row locality = 684/91 = 7.516483
number of total memory accesses made:
dram[0]:         0         0         0         0         0         0         0         0         0         0         0         0         0         0         0         0 
dram[1]:         0         0         0         0         0         0         0         0         0         0         0         0         0         0         0         0 
dram[2]:         0         0         0         0         0         0         0         0         0         0         0         0         0         0         0         0 
dram[3]:         0         0         0         0         0         0         0         0         0         0         0         0         0         0         0         0 
dram[4]:         0         0         0         0         0         0         0         0         0         0         0         0         0         0         0         0 
dram[5]:         0         0         0         0         0         0         0         0         0         0         0         0         0         0         0         0 
total accesses: 0
min_bank_accesses = 0!
min_chip_accesses = 0!
number of total read accesses:
dram[0]:         5         6         4         4        12        12         6         6         2         2         0         0         0         0         0         0 
dram[1]:         4         6         4         4        12        12         6         6         2         2         0         0         0         0         0         0 
dram[2]:         4         8         4         6        12        15         6        10         2         4         0         0         0         0         0         0 
dram[3]:         4         5         4         4        12        16         6        10         2         4         0         0         0         0         0         0 
dram[4]:         4         4         4         4        12        16         6        10         2         4         0         0         0         0         0         0 
dram[5]:         5         4         4         4        12        16         6         9         2         4         0         0         0         0         0         0 
total reads: 387
min_bank_accesses = 0!
chip skew: 71/58 = 1.22
number of total write accesses:
dram[0]:         5         6         4         4         4         4         6         6         2         2         0         0         0         0         0         0 
dram[1]:         5         6         4         4         4         4         6         6         2         2         0         0         0         0         0         0 
dram[2]:         6         9         4         6         4         7         6        10         2         4         0         0         0         0         0         0 
dram[3]:         6         5         4         4         4         6         6        10         2         4         0         0         0         0         0         0 
dram[4]:         5         6         4         4         4         6         6        10         2         4         0         0         0         0         0         0 
dram[5]:         5         5         4         4         4         8         6         9         2         4         0         0         0         0         0         0 
total reads: 297
min_bank_accesses = 0!
chip skew: 58/43 = 1.35
average mf latency per bank:
dram[0]:        548       408       358       341       387       428       556       546       753       752    none      none      none      none      none      none  
dram[1]:        553       423       344       344       400       401       546       558       736       760    none      none      none      none      none      none  
dram[2]:        473       436       322       361       408       393       525       525       716       627    none      none      none      none      none      none  
dram[3]:        473       473       320       357       360       351       524       397       707       455    none      none      none      none      none      none  
dram[4]:        521       500       340       356       364       341       535       393       728       456    none      none      none      none      none      none  
dram[5]:        467       547       338       358       414       316       532       425       731       457    none      none      none      none      none      none  
maximum mf latency per bank:
dram[0]:        310       310       319       317       360       466       341       340       328       320         0         0         0         0         0         0
dram[1]:        326       330       314       314       385       436       329       323       326       326         0         0         0         0         0         0
dram[2]:        316       319       314       316       439       446       332       345       340       346         0         0         0         0         0         0
dram[3]:        314       309       324       314       325       422       335       358       338       334         0         0         0         0         0         0
dram[4]:        309       312       315       314       316       388       353       329       321       330         0         0         0         0         0         0
dram[5]:        310       314       314       322       458       412       323       363       321       332         0         0         0         0         0         0

Number of Memory Banks Accessed per Memory Operation per Warp (from 0):
0	0	0	0	0	0	0	0	0	0	0	0	0	0	0	0	0	0	0	0	0	0	0	0	0	0	0	0	0	0	0	0	0	0	0	0	0	0	0	0	0	0	0	0	0	0	0	0	0	0	0	0	0	0	0	0	0	0	0	0	0	0	0	0	0	0	0	0	0	0	0	0	0	0	0	0	0	0	0	0	0	0	0	0	0	0	0	0	0	0	0	0	0	0	0	0	
Average # of Memory Banks Accessed per Memory Operation per Warp=-nan

position of mrq chosen
0	0	0	0	0	0	0	0	0	0	0	0	0	0	0	0	

average position of mrq chosen = -nan
Memory Partition 0: 
Cache L2_bank_000:
MSHR contents

Cache L2_bank_001:
MSHR contents
MSHR: tag=0x80004680, atomic=0 1 entries : 0x7f104467fde0 :  mf: uid= 10199, sid01:w15, part=0, addr=0x80004680, load , size=128, unknown  status = IN_PARTITION_DRAM (6316), 

In Dram Latency Queue (total = 0): 
DRAM[0]: 16 bks, busW=4 BL=8 CL=12, tRRD=2 tCCD=6, tRCD=12 tRAS=28 tRP=12 tRC=40
n_cmd=8340 n_nop=8114 n_act=16 n_pre=6 n_req=102 n_rd=118 n_write=86 bw_util=0.04892
n_activity=1299 dram_eff=0.3141
bk0: 10a 8227i bk1: 12a 8208i bk2: 8a 8248i bk3: 8a 8264i bk4: 24a 8164i bk5: 24a 8133i bk6: 12a 8111i bk7: 12a 8120i bk8: 4a 8252i bk9: 4a 8271i bk10: 0a 8337i bk11: 0a 8338i bk12: 0a 8338i bk13: 0a 8341i bk14: 0a 8342i bk15: 0a 8344i 
dram_util_bins: 0 0 0 0 0 0 0 0 0 0
dram_eff_bins: 0 0 0 0 0 0 0 0 0 0
mrqq: max=4 avg=0.0695444
Memory Partition 1: 
Cache L2_bank_002:
MSHR contents

Cache L2_bank_003:
MSHR contents

In Dram Latency Queue (total = 0): 
DRAM[1]: 16 bks, busW=4 BL=8 CL=12, tRRD=2 tCCD=6, tRCD=12 tRAS=28 tRP=12 tRC=40
n_cmd=8340 n_nop=8114 n_act=17 n_pre=7 n_req=101 n_rd=116 n_write=86 bw_util=0.04844
n_activity=1341 dram_eff=0.3013
bk0: 8a 8248i bk1: 12a 8156i bk2: 8a 8261i bk3: 8a 8262i bk4: 24a 8175i bk5: 24a 8189i bk6: 12a 8137i bk7: 12a 8139i bk8: 4a 8259i bk9: 4a 8254i bk10: 0a 8334i bk11: 0a 8335i bk12: 0a 8337i bk13: 0a 8341i bk14: 0a 8343i bk15: 0a 8347i 
dram_util_bins: 0 0 0 0 0 0 0 0 0 0
dram_eff_bins: 0 0 0 0 0 0 0 0 0 0
mrqq: max=3 avg=0.0588729
Memory Partition 2: 
Cache L2_bank_004:
MSHR contents

Cache L2_bank_005:
MSHR contents

In Dram Latency Queue (total = 0): 
DRAM[2]: 16 bks, busW=4 BL=8 CL=12, tRRD=2 tCCD=6, tRCD=12 tRAS=28 tRP=12 tRC=40
n_cmd=8340 n_nop=8062 n_act=15 n_pre=5 n_req=129 n_rd=142 n_write=116 bw_util=0.06187
n_activity=1632 dram_eff=0.3162
bk0: 8a 8258i bk1: 16a 8148i bk2: 8a 8264i bk3: 12a 8226i bk4: 24a 8167i bk5: 30a 8125i bk6: 12a 8105i bk7: 20a 7981i bk8: 4a 8247i bk9: 8a 8169i bk10: 0a 8335i bk11: 0a 8335i bk12: 0a 8337i bk13: 0a 8339i bk14: 0a 8341i bk15: 0a 8343i 
dram_util_bins: 0 0 0 0 0 0 0 0 0 0
dram_eff_bins: 0 0 0 0 0 0 0 0 0 0
mrqq: max=4 avg=0.083813
Memory Partition 3: 
Cache L2_bank_006:
MSHR contents
MSHR: tag=0x80000780, atomic=0 1 entries : 0x7f1044753c10 :  mf: uid= 10198, sid01:w15, part=3, addr=0x80000780, load , size=128, unknown  status = IN_PARTITION_DRAM (6310), 

Cache L2_bank_007:
MSHR contents

In Dram Latency Queue (total = 0): 
DRAM[3]: 16 bks, busW=4 BL=8 CL=12, tRRD=2 tCCD=6, tRCD=12 tRAS=28 tRP=12 tRC=40
n_cmd=8340 n_nop=8084 n_act=15 n_pre=5 n_req=118 n_rd=134 n_write=102 bw_util=0.05659
n_activity=1534 dram_eff=0.3077
bk0: 8a 8258i bk1: 10a 8217i bk2: 8a 8250i bk3: 8a 8266i bk4: 24a 8164i bk5: 32a 8112i bk6: 12a 8131i bk7: 20a 7977i bk8: 4a 8258i bk9: 8a 8229i bk10: 0a 8333i bk11: 0a 8333i bk12: 0a 8337i bk13: 0a 8339i bk14: 0a 8342i bk15: 0a 8345i 
dram_util_bins: 0 0 0 0 0 0 0 0 0 0
dram_eff_bins: 0 0 0 0 0 0 0 0 0 0
mrqq: max=4 avg=0.0848921
Memory Partition 4: 
Cache L2_bank_008:
MSHR contents

Cache L2_bank_009:
MSHR contents

In Dram Latency Queue (total = 0): 
DRAM[4]: 16 bks, busW=4 BL=8 CL=12, tRRD=2 tCCD=6, tRCD=12 tRAS=28 tRP=12 tRC=40
n_cmd=8340 n_nop=8088 n_act=14 n_pre=4 n_req=117 n_rd=132 n_write=102 bw_util=0.05612
n_activity=1433 dram_eff=0.3266
bk0: 8a 8244i bk1: 8a 8246i bk2: 8a 8253i bk3: 8a 8252i bk4: 24a 8172i bk5: 32a 8119i bk6: 12a 8116i bk7: 20a 8010i bk8: 4a 8266i bk9: 8a 8187i bk10: 0a 8334i bk11: 0a 8335i bk12: 0a 8336i bk13: 0a 8339i bk14: 0a 8342i bk15: 0a 8343i 
dram_util_bins: 0 0 0 0 0 0 0 0 0 0
dram_eff_bins: 0 0 0 0 0 0 0 0 0 0
mrqq: max=4 avg=0.073741
Memory Partition 5: 
Cache L2_bank_010:
MSHR contents

Cache L2_bank_011:
MSHR contents

In Dram Latency Queue (total = 0): 
DRAM[5]: 16 bks, busW=4 BL=8 CL=12, tRRD=2 tCCD=6, tRCD=12 tRAS=28 tRP=12 tRC=40
n_cmd=8340 n_nop=8086 n_act=15 n_pre=5 n_req=117 n_rd=132 n_write=102 bw_util=0.05612
n_activity=1477 dram_eff=0.3169
bk0: 10a 8229i bk1: 8a 8230i bk2: 8a 8241i bk3: 8a 8264i bk4: 24a 8156i bk5: 32a 8098i bk6: 12a 8142i bk7: 18a 8022i bk8: 4a 8274i bk9: 8a 8175i bk10: 0a 8335i bk11: 0a 8336i bk12: 0a 8338i bk13: 0a 8341i bk14: 0a 8342i bk15: 0a 8342i 
dram_util_bins: 0 0 0 0 0 0 0 0 0 0
dram_eff_bins: 0 0 0 0 0 0 0 0 0 0
mrqq: max=4 avg=0.0809353

========= L2 cache stats =========
L2_cache_bank[0]: Access = 104, Miss = 29, Miss_rate = 0.279, Pending_hits = 2, Reservation_fails = 0
L2_cache_bank[1]: Access = 106, Miss = 30, Miss_rate = 0.283, Pending_hits = 4, Reservation_fails = 0
L2_cache_bank[2]: Access = 102, Miss = 28, Miss_rate = 0.275, Pending_hits = 1, Reservation_fails = 0
L2_cache_bank[3]: Access = 106, Miss = 30, Miss_rate = 0.283, Pending_hits = 4, Reservation_fails = 0
L2_cache_bank[4]: Access = 102, Miss = 28, Miss_rate = 0.275, Pending_hits = 2, Reservation_fails = 0
L2_cache_bank[5]: Access = 156, Miss = 43, Miss_rate = 0.276, Pending_hits = 5, Reservation_fails = 0
L2_cache_bank[6]: Access = 102, Miss = 28, Miss_rate = 0.275, Pending_hits = 2, Reservation_fails = 0
L2_cache_bank[7]: Access = 114, Miss = 39, Miss_rate = 0.342, Pending_hits = 1, Reservation_fails = 0
L2_cache_bank[8]: Access = 102, Miss = 28, Miss_rate = 0.275, Pending_hits = 1, Reservation_fails = 0
L2_cache_bank[9]: Access = 112, Miss = 38, Miss_rate = 0.339, Pending_hits = 2, Reservation_fails = 0
L2_cache_bank[10]: Access = 104, Miss = 29, Miss_rate = 0.279, Pending_hits = 2, Reservation_fails = 0
L2_cache_bank[11]: Access = 111, Miss = 37, Miss_rate = 0.333, Pending_hits = 1, Reservation_fails = 0
L2_total_cache_accesses = 1321
L2_total_cache_misses = 387
L2_total_cache_miss_rate = 0.2930
L2_total_cache_pending_hits = 27
L2_total_cache_reservation_fails = 0
L2_total_cache_breakdown:
	L2_cache_stats_breakdown[GLOBAL_ACC_R][MISS] = 100
	L2_cache_stats_breakdown[CONST_ACC_R][HIT_RESERVED] = 1
	L2_cache_stats_breakdown[CONST_ACC_R][MISS] = 1
	L2_cache_stats_breakdown[GLOBAL_ACC_W][MISS] = 50
	L2_cache_stats_breakdown[LOCAL_ACC_W][HIT] = 906
	L2_cache_stats_breakdown[LOCAL_ACC_W][HIT_RESERVED] = 19
	L2_cache_stats_breakdown[LOCAL_ACC_W][MISS] = 228
	L2_cache_stats_breakdown[INST_ACC_R][HIT] = 1
	L2_cache_stats_breakdown[INST_ACC_R][HIT_RESERVED] = 7
	L2_cache_stats_breakdown[INST_ACC_R][MISS] = 8
L2_cache_data_port_util = 0.048
L2_cache_fill_port_util = 0.020

icnt_total_pkts_mem_to_simt=1789
icnt_total_pkts_simt_to_mem=6133
LD_mem_lat_dist  0 0 0 0 0 0 0 0 0 0 0 0 0 0 0 0 0 0 0 0 0 0 0 0 0 0 0
ST_mem_lat_dist  0 0 0 0 0 0 0 0 0 0 0 0 0 0 0 0 0 0 0 0 0 0 0 0 0 0 0
----------------------------Interconnect-DETAILS--------------------------------
Class 0:
Packet latency average = 15.2226
	minimum = 6
	maximum = 140
Network latency average = 12.1734
	minimum = 6
	maximum = 105
Slowest packet = 1309
Flit latency average = 11.3806
	minimum = 6
	maximum = 101
Slowest flit = 3813
Fragmentation average = 0
	minimum = 0
	maximum = 0
Injected packet rate average = 0.0154853
	minimum = 0 (at node 0)
	maximum = 0.130559 (at node 1)
Accepted packet rate average = 0.0154853
	minimum = 0 (at node 0)
	maximum = 0.130559 (at node 1)
Injected flit rate average = 0.0464326
	minimum = 0 (at node 0)
	maximum = 0.606583 (at node 1)
Accepted flit rate average= 0.0464326
	minimum = 0 (at node 0)
	maximum = 0.176452 (at node 1)
Injected packet length average = 2.99849
Accepted packet length average = 2.99849
Total in-flight flits = 0 (0 measured)
====== Overall Traffic Statistics ======
====== Traffic class 0 ======
Packet latency average = 15.2226 (1 samples)
	minimum = 6 (1 samples)
	maximum = 140 (1 samples)
Network latency average = 12.1734 (1 samples)
	minimum = 6 (1 samples)
	maximum = 105 (1 samples)
Flit latency average = 11.3806 (1 samples)
	minimum = 6 (1 samples)
	maximum = 101 (1 samples)
Fragmentation average = 0 (1 samples)
	minimum = 0 (1 samples)
	maximum = 0 (1 samples)
Injected packet rate average = 0.0154853 (1 samples)
	minimum = 0 (1 samples)
	maximum = 0.130559 (1 samples)
Accepted packet rate average = 0.0154853 (1 samples)
	minimum = 0 (1 samples)
	maximum = 0.130559 (1 samples)
Injected flit rate average = 0.0464326 (1 samples)
	minimum = 0 (1 samples)
	maximum = 0.606583 (1 samples)
Accepted flit rate average = 0.0464326 (1 samples)
	minimum = 0 (1 samples)
	maximum = 0.176452 (1 samples)
Injected packet size average = 2.99849 (1 samples)
Accepted packet size average = 2.99849 (1 samples)
Hops average = 1 (1 samples)
----------------------------END-of-Interconnect-DETAILS-------------------------


gpgpu_simulation_time = 0 days, 0 hrs, 0 min, 2 sec (2 sec)
gpgpu_simulation_rate = 70322 (inst/sec)
gpgpu_simulation_rate = 3159 (cycle/sec)
mask memcpy success!
data_out memcpy success!
