

        *** GPGPU-Sim Simulator Version 3.2.2  [build 0] ***


GPGPU-Sim PTX: simulation mode 0 (can change with PTX_SIM_MODE_FUNC environment variable:
               1=functional simulation only, 0=detailed performance simulator)
GPGPU-Sim: Configuration options:

-network_mode                           1 # Interconnection network mode
-inter_config_file   config_fermi_islip.icnt # Interconnection network config file
-gpgpu_ptx_use_cuobjdump                    1 # Use cuobjdump to extract ptx and sass from binaries
-gpgpu_experimental_lib_support                    0 # Try to extract code from cuda libraries [Broken because of unknown cudaGetExportTable]
-gpgpu_ptx_convert_to_ptxplus                    0 # Convert SASS (native ISA) to ptxplus and run ptxplus
-gpgpu_ptx_force_max_capability                   20 # Force maximum compute capability
-gpgpu_ptx_inst_debug_to_file                    0 # Dump executed instructions' debug information to file
-gpgpu_ptx_inst_debug_file       inst_debug.txt # Executed instructions' debug output file
-gpgpu_ptx_inst_debug_thread_uid                    1 # Thread UID for executed instructions' debug output
-gpgpu_simd_model                       1 # 1 = post-dominator
-gpgpu_shader_core_pipeline              1536:32 # shader core pipeline config, i.e., {<nthread>:<warpsize>}
-gpgpu_tex_cache:l1  4:128:24,L:R:m:N:L,F:128:4,128:2 # per-shader L1 texture cache  (READ-ONLY) config  {<nsets>:<bsize>:<assoc>,<rep>:<wr>:<alloc>:<wr_alloc>,<mshr>:<N>:<merge>,<mq>:<rf>}
-gpgpu_const_cache:l1 64:64:2,L:R:f:N:L,A:2:32,4 # per-shader L1 constant memory cache  (READ-ONLY) config  {<nsets>:<bsize>:<assoc>,<rep>:<wr>:<alloc>:<wr_alloc>,<mshr>:<N>:<merge>,<mq>} 
-gpgpu_cache:il1     4:128:4,L:R:f:N:L,A:2:32,4 # shader L1 instruction cache config  {<nsets>:<bsize>:<assoc>,<rep>:<wr>:<alloc>:<wr_alloc>,<mshr>:<N>:<merge>,<mq>} 
-gpgpu_cache:dl1     32:128:4,L:L:m:N:H,A:32:8,8 # per-shader L1 data cache config  {<nsets>:<bsize>:<assoc>,<rep>:<wr>:<alloc>:<wr_alloc>,<mshr>:<N>:<merge>,<mq> | none}
-gpgpu_cache:dl1PrefL1                 none # per-shader L1 data cache config  {<nsets>:<bsize>:<assoc>,<rep>:<wr>:<alloc>:<wr_alloc>,<mshr>:<N>:<merge>,<mq> | none}
-gpgpu_cache:dl1PreShared                 none # per-shader L1 data cache config  {<nsets>:<bsize>:<assoc>,<rep>:<wr>:<alloc>:<wr_alloc>,<mshr>:<N>:<merge>,<mq> | none}
-gmem_skip_L1D                          0 # global memory access skip L1D cache (implements -Xptxas -dlcm=cg, default=no skip)
-gpgpu_perfect_mem                      0 # enable perfect memory mode (no cache miss)
-n_regfile_gating_group                    4 # group of lanes that should be read/written together)
-gpgpu_clock_gated_reg_file                    0 # enable clock gated reg file for power calculations
-gpgpu_clock_gated_lanes                    0 # enable clock gated lanes for power calculations
-gpgpu_shader_registers                32768 # Number of registers per shader core. Limits number of concurrent CTAs. (default 8192)
-gpgpu_shader_cta                       8 # Maximum number of concurrent CTAs in shader (default 8)
-gpgpu_num_cta_barriers                   16 # Maximum number of named barriers per CTA (default 16)
-gpgpu_n_clusters                      15 # number of processing clusters
-gpgpu_n_cores_per_cluster                    1 # number of simd cores per cluster
-gpgpu_n_cluster_ejection_buffer_size                    8 # number of packets in ejection buffer
-gpgpu_n_ldst_response_buffer_size                    2 # number of response packets in ld/st unit ejection buffer
-gpgpu_shmem_size                   16384 # Size of shared memory per shader core (default 16kB)
-gpgpu_shmem_size                   49152 # Size of shared memory per shader core (default 16kB)
-gpgpu_shmem_size_PrefL1                16384 # Size of shared memory per shader core (default 16kB)
-gpgpu_shmem_size_PrefShared                16384 # Size of shared memory per shader core (default 16kB)
-gpgpu_shmem_num_banks                   32 # Number of banks in the shared memory in each shader core (default 16)
-gpgpu_shmem_limited_broadcast                    0 # Limit shared memory to do one broadcast per cycle (default on)
-gpgpu_shmem_warp_parts                    1 # Number of portions a warp is divided into for shared memory bank conflict check 
-gpgpu_warpdistro_shader                   -1 # Specify which shader core to collect the warp size distribution from
-gpgpu_warp_issue_shader                    0 # Specify which shader core to collect the warp issue distribution from
-gpgpu_local_mem_map                    1 # Mapping from local memory space address to simulated GPU physical address space (default = enabled)
-gpgpu_num_reg_banks                   16 # Number of register banks (default = 8)
-gpgpu_reg_bank_use_warp_id                    0 # Use warp ID in mapping registers to banks (default = off)
-gpgpu_operand_collector_num_units_sp                    6 # number of collector units (default = 4)
-gpgpu_operand_collector_num_units_sfu                    8 # number of collector units (default = 4)
-gpgpu_operand_collector_num_units_mem                    2 # number of collector units (default = 2)
-gpgpu_operand_collector_num_units_gen                    0 # number of collector units (default = 0)
-gpgpu_operand_collector_num_in_ports_sp                    2 # number of collector unit in ports (default = 1)
-gpgpu_operand_collector_num_in_ports_sfu                    1 # number of collector unit in ports (default = 1)
-gpgpu_operand_collector_num_in_ports_mem                    1 # number of collector unit in ports (default = 1)
-gpgpu_operand_collector_num_in_ports_gen                    0 # number of collector unit in ports (default = 0)
-gpgpu_operand_collector_num_out_ports_sp                    2 # number of collector unit in ports (default = 1)
-gpgpu_operand_collector_num_out_ports_sfu                    1 # number of collector unit in ports (default = 1)
-gpgpu_operand_collector_num_out_ports_mem                    1 # number of collector unit in ports (default = 1)
-gpgpu_operand_collector_num_out_ports_gen                    0 # number of collector unit in ports (default = 0)
-gpgpu_coalesce_arch                   13 # Coalescing arch (default = 13, anything else is off for now)
-gpgpu_num_sched_per_core                    2 # Number of warp schedulers per core
-gpgpu_max_insn_issue_per_warp                    1 # Max number of instructions that can be issued per warp in one cycle by scheduler
-gpgpu_simt_core_sim_order                    1 # Select the simulation order of cores in a cluster (0=Fix, 1=Round-Robin)
-gpgpu_pipeline_widths        2,1,1,2,1,1,2 # Pipeline widths ID_OC_SP,ID_OC_SFU,ID_OC_MEM,OC_EX_SP,OC_EX_SFU,OC_EX_MEM,EX_WB
-gpgpu_num_sp_units                     2 # Number of SP units (default=1)
-gpgpu_num_sfu_units                    1 # Number of SF units (default=1)
-gpgpu_num_mem_units                    1 # Number if ldst units (default=1) WARNING: not hooked up to anything
-gpgpu_scheduler                      gto # Scheduler configuration: < lrr | gto | two_level_active > If two_level_active:<num_active_warps>:<inner_prioritization>:<outer_prioritization>For complete list of prioritization values see shader.h enum scheduler_prioritization_typeDefault: gto
-gpgpu_dram_scheduler                    1 # 0 = fifo, 1 = FR-FCFS (defaul)
-gpgpu_dram_partition_queues              8:8:8:8 # i2$:$2d:d2$:$2i
-l2_ideal                               0 # Use a ideal L2 cache that always hit
-gpgpu_cache:dl2     64:128:8,L:B:m:W:L,A:32:4,4:0,32 # unified banked L2 data cache config  {<nsets>:<bsize>:<assoc>,<rep>:<wr>:<alloc>:<wr_alloc>,<mshr>:<N>:<merge>,<mq>}
-gpgpu_cache:dl2_texture_only                    0 # L2 cache used for texture only
-gpgpu_n_mem                            6 # number of memory modules (e.g. memory controllers) in gpu
-gpgpu_n_sub_partition_per_mchannel                    2 # number of memory subpartition in each memory module
-gpgpu_n_mem_per_ctrlr                    2 # number of memory chips per memory controller
-gpgpu_memlatency_stat                   14 # track and display latency statistics 0x2 enables MC, 0x4 enables queue logs
-gpgpu_frfcfs_dram_sched_queue_size                   16 # 0 = unlimited (default); # entries per chip
-gpgpu_dram_return_queue_size                  116 # 0 = unlimited (default); # entries per chip
-gpgpu_dram_buswidth                    4 # default = 4 bytes (8 bytes per cycle at DDR)
-gpgpu_dram_burst_length                    8 # Burst length of each DRAM request (default = 4 data bus cycle)
-dram_data_command_freq_ratio                    4 # Frequency ratio between DRAM data bus and command bus (default = 2 times, i.e. DDR)
-gpgpu_dram_timing_opt nbk=16:CCD=2:RRD=6:RCD=12:RAS=28:RP=12:RC=40: CL=12:WL=4:CDLR=5:WR=12:nbkgrp=4:CCDL=3:RTPL=2 # DRAM timing parameters = {nbk:tCCD:tRRD:tRCD:tRAS:tRP:tRC:CL:WL:tCDLR:tWR:nbkgrp:tCCDL:tRTPL}
-rop_latency                          120 # ROP queue latency (default 85)
-dram_latency                         100 # DRAM latency (default 30)
-gpgpu_mem_addr_mapping dramid@8;00000000.00000000.00000000.00000000.0000RRRR.RRRRRRRR.BBBCCCCB.CCSSSSSS # mapping memory address to dram model {dramid@<start bit>;<memory address map>}
-gpgpu_mem_addr_test                    0 # run sweep test to check address mapping for aliased address
-gpgpu_mem_address_mask                    1 # 0 = old addressing mask, 1 = new addressing mask, 2 = new add. mask + flipped bank sel and chip sel bits
-gpuwattch_xml_file  gpuwattch_gtx480.xml # GPUWattch XML file
-power_simulation_enabled                    1 # Turn on power simulator (1=On, 0=Off)
-power_per_cycle_dump                    0 # Dump detailed power output each cycle
-power_trace_enabled                    0 # produce a file for the power trace (1=On, 0=Off)
-power_trace_zlevel                     6 # Compression level of the power trace output log (0=no comp, 9=highest)
-steady_power_levels_enabled                    0 # produce a file for the steady power levels (1=On, 0=Off)
-steady_state_definition                  8:4 # allowed deviation:number of samples
-gpgpu_max_cycle                        0 # terminates gpu simulation early (0 = no limit)
-gpgpu_max_insn                         0 # terminates gpu simulation early (0 = no limit)
-gpgpu_max_cta                          0 # terminates gpu simulation early (0 = no limit)
-gpgpu_runtime_stat                   500 # display runtime statistics such as dram utilization {<freq>:<flag>}
-liveness_message_freq                    1 # Minimum number of seconds between simulation liveness messages (0 = always print)
-gpgpu_flush_l1_cache                    0 # Flush L1 cache at the end of each kernel call
-gpgpu_flush_l2_cache                    0 # Flush L2 cache at the end of each kernel call
-gpgpu_deadlock_detect                    1 # Stop the simulation at deadlock (1=on (default), 0=off)
-gpgpu_ptx_instruction_classification                    0 # if enabled will classify ptx instruction types per kernel (Max 255 kernels now)
-gpgpu_ptx_sim_mode                     0 # Select between Performance (default) or Functional simulation (1)
-gpgpu_clock_domains 700.0:700.0:700.0:924.0 # Clock Domain Frequencies in MhZ {<Core Clock>:<ICNT Clock>:<L2 Clock>:<DRAM Clock>}
-gpgpu_max_concurrent_kernel                    8 # maximum kernels that can run concurrently on GPU
-gpgpu_cflog_interval                    0 # Interval between each snapshot in control flow logger
-visualizer_enabled                     0 # Turn on visualizer output (1=On, 0=Off)
-visualizer_outputfile                 NULL # Specifies the output log file for visualizer
-visualizer_zlevel                      6 # Compression level of the visualizer output log (0=no comp, 9=highest)
-trace_enabled                          0 # Turn on traces
-trace_components                    none # comma seperated list of traces to enable. Complete list found in trace_streams.tup. Default none
-trace_sampling_core                    0 # The core which is printed using CORE_DPRINTF. Default 0
-trace_sampling_memory_partition                   -1 # The memory partition which is printed using MEMPART_DPRINTF. Default -1 (i.e. all)
-enable_ptx_file_line_stats                    1 # Turn on PTX source line statistic profiling. (1 = On)
-ptx_line_stats_filename gpgpu_inst_stats.txt # Output file for PTX source line statistics.
-save_embedded_ptx                      0 # saves ptx files embedded in binary as <n>.ptx
-keep                                   0 # keep intermediate files created by GPGPU-Sim when interfacing with external programs
-gpgpu_ptx_save_converted_ptxplus                    0 # Saved converted ptxplus to a file
-ptx_opcode_latency_int         4,13,4,5,145 # Opcode latencies for integers <ADD,MAX,MUL,MAD,DIV>Default 1,1,19,25,145
-ptx_opcode_latency_fp          4,13,4,5,39 # Opcode latencies for single precision floating points <ADD,MAX,MUL,MAD,DIV>Default 1,1,1,1,30
-ptx_opcode_latency_dp         8,19,8,8,330 # Opcode latencies for double precision floating points <ADD,MAX,MUL,MAD,DIV>Default 8,8,8,8,335
-ptx_opcode_initiation_int            1,2,2,1,8 # Opcode initiation intervals for integers <ADD,MAX,MUL,MAD,DIV>Default 1,1,4,4,32
-ptx_opcode_initiation_fp            1,2,1,1,4 # Opcode initiation intervals for single precision floating points <ADD,MAX,MUL,MAD,DIV>Default 1,1,1,1,5
-ptx_opcode_initiation_dp         8,16,8,8,130 # Opcode initiation intervals for double precision floating points <ADD,MAX,MUL,MAD,DIV>Default 8,8,8,8,130
DRAM Timing Options:
nbk                                    16 # number of banks
CCD                                     2 # column to column delay
RRD                                     6 # minimal delay between activation of rows in different banks
RCD                                    12 # row to column delay
RAS                                    28 # time needed to activate row
RP                                     12 # time needed to precharge (deactivate) row
RC                                     40 # row cycle time
CDLR                                    5 # switching from write to read (changes tWTR)
WR                                     12 # last data-in to row precharge
CL                                     12 # CAS latency
WL                                      4 # Write latency
nbkgrp                                  4 # number of bank groups
CCDL                                    3 # column to column delay between accesses to different bank groups
RTPL                                    2 # read to precharge delay between accesses to different bank groups
Total number of memory sub partition = 12
addr_dec_mask[CHIP]  = 0000000000000000 	high:64 low:0
addr_dec_mask[BK]    = 000000000000e100 	high:16 low:8
addr_dec_mask[ROW]   = 000000000fff0000 	high:28 low:16
addr_dec_mask[COL]   = 0000000000001eff 	high:13 low:0
addr_dec_mask[BURST] = 000000000000003f 	high:6 low:0
sub_partition_id_mask = 0000000000000100
GPGPU-Sim uArch: clock freqs: 700000000.000000:700000000.000000:700000000.000000:924000000.000000
GPGPU-Sim uArch: clock periods: 0.00000000142857142857:0.00000000142857142857:0.00000000142857142857:0.00000000108225108225
*** Initializing Memory Statistics ***
GPGPU-Sim uArch: interconnect node map (shaderID+MemID to icntID)
GPGPU-Sim uArch: Memory nodes ID start from index: 15
GPGPU-Sim uArch:    0   1   2   3   4
GPGPU-Sim uArch:    5   6   7   8   9
GPGPU-Sim uArch:   10  11  12  13  14
GPGPU-Sim uArch:   15  16  17  18  19
GPGPU-Sim uArch:   20  21  22  23  24
GPGPU-Sim uArch:   25  26
GPGPU-Sim uArch: interconnect node reverse map (icntID to shaderID+MemID)
GPGPU-Sim uArch: Memory nodes start from ID: 15
GPGPU-Sim uArch:    0   1   2   3   4
GPGPU-Sim uArch:    5   6   7   8   9
GPGPU-Sim uArch:   10  11  12  13  14
GPGPU-Sim uArch:   15  16  17  18  19
GPGPU-Sim uArch:   20  21  22  23  24
GPGPU-Sim uArch:   25  26
22bbffa9c9109441700758a1ff59cac9  /home/bing/cu_learn/im2col/src/bin/main
GPGPU-Sim uArch: performance model initialization complete.
GPGPU-Sim PTX: __cudaRegisterFatBinary, fat_cubin_handle = 1, filename=/home/bing/cu_learn/im2col/src/col2im.cu
self exe links to: /home/bing/cu_learn/im2col/src/bin/main
Running md5sum using "md5sum /home/bing/cu_learn/im2col/src/bin/main "
Running cuobjdump using "$CUDA_INSTALL_PATH/bin/cuobjdump -ptx -elf -sass /home/bing/cu_learn/im2col/src/bin/main > _cuobjdump_complete_output_AU4p5y"
Parsing file _cuobjdump_complete_output_AU4p5y
######### cuobjdump parser ########
## Adding new section ELF
Adding arch: sm_20
Adding identifier: /home/bing/cu_learn/im2col/src/col2im.cu
## Adding new section PTX
Adding ptx filename: _cuobjdump_1.ptx
Adding arch: sm_20
Adding identifier: /home/bing/cu_learn/im2col/src/col2im.cu
## Adding new section ELF
Adding arch: sm_20
Adding identifier: /home/bing/cu_learn/im2col/src/cuda_conv.cu
## Adding new section PTX
Adding ptx filename: _cuobjdump_2.ptx
Adding arch: sm_20
Adding identifier: /home/bing/cu_learn/im2col/src/cuda_conv.cu
## Adding new section ELF
Adding arch: sm_20
Adding identifier: /home/bing/cu_learn/im2col/src/fc.cu
## Adding new section PTX
Adding ptx filename: _cuobjdump_3.ptx
Adding arch: sm_20
Adding identifier: /home/bing/cu_learn/im2col/src/fc.cu
## Adding new section ELF
Adding arch: sm_20
Adding identifier: /home/bing/cu_learn/im2col/src/im2col.cu
## Adding new section PTX
Adding ptx filename: _cuobjdump_4.ptx
Adding arch: sm_20
Adding identifier: /home/bing/cu_learn/im2col/src/im2col.cu
## Adding new section ELF
Adding arch: sm_20
Adding identifier: /home/bing/cu_learn/im2col/src/pooling.cu
## Adding new section PTX
Adding ptx filename: _cuobjdump_5.ptx
Adding arch: sm_20
Adding identifier: /home/bing/cu_learn/im2col/src/pooling.cu
## Adding new section ELF
Adding arch: sm_20
Adding identifier: /home/bing/cu_learn/im2col/src/sigmoid.cu
## Adding new section PTX
Adding ptx filename: _cuobjdump_6.ptx
Adding arch: sm_20
Adding identifier: /home/bing/cu_learn/im2col/src/sigmoid.cu
Done parsing!!!
GPGPU-Sim PTX: __cudaRegisterFunction _Z17col2im_gpu_kernelIdEviPKT_iiiiiiiiPS0_ : hostFun 0x0x401600, fat_cubin_handle = 1
GPGPU-Sim PTX: instruction assembly for function '_Z17col2im_gpu_kernelIfEviPKT_iiiiiiiiPS0_'...   done.
GPGPU-Sim PTX: finding reconvergence points for '_Z17col2im_gpu_kernelIfEviPKT_iiiiiiiiPS0_'...
GPGPU-Sim PTX: Finding dominators for '_Z17col2im_gpu_kernelIfEviPKT_iiiiiiiiPS0_'...
GPGPU-Sim PTX: Finding immediate dominators for '_Z17col2im_gpu_kernelIfEviPKT_iiiiiiiiPS0_'...
GPGPU-Sim PTX: Finding postdominators for '_Z17col2im_gpu_kernelIfEviPKT_iiiiiiiiPS0_'...
GPGPU-Sim PTX: Finding immediate postdominators for '_Z17col2im_gpu_kernelIfEviPKT_iiiiiiiiPS0_'...
GPGPU-Sim PTX: pre-decoding instructions for '_Z17col2im_gpu_kernelIfEviPKT_iiiiiiiiPS0_'...
GPGPU-Sim PTX: reconvergence points for _Z17col2im_gpu_kernelIfEviPKT_iiiiiiiiPS0_...
GPGPU-Sim PTX:  1 (potential) branch divergence @  PC=0x040 (_1.ptx:79) @%p1 bra $Lt_0_4866;
GPGPU-Sim PTX:    immediate post dominator      @  PC=0x338 (_1.ptx:195) exit;
GPGPU-Sim PTX:  2 (potential) branch divergence @  PC=0x0d0 (_1.ptx:99) @%p2 bra $Lt_0_5890;
GPGPU-Sim PTX:    immediate post dominator      @  PC=0x100 (_1.ptx:108) div.s32 %r21, %r6, %r15;
GPGPU-Sim PTX:  3 (potential) branch divergence @  PC=0x0f0 (_1.ptx:104) bra.uni $Lt_0_5634;
GPGPU-Sim PTX:    immediate post dominator      @  PC=0x100 (_1.ptx:108) div.s32 %r21, %r6, %r15;
GPGPU-Sim PTX:  4 (potential) branch divergence @  PC=0x120 (_1.ptx:112) @%p3 bra $Lt_0_6402;
GPGPU-Sim PTX:    immediate post dominator      @  PC=0x150 (_1.ptx:122) mov.s32 %r27, %r26;
GPGPU-Sim PTX:  5 (potential) branch divergence @  PC=0x140 (_1.ptx:117) bra.uni $Lt_0_6146;
GPGPU-Sim PTX:    immediate post dominator      @  PC=0x150 (_1.ptx:122) mov.s32 %r27, %r26;
GPGPU-Sim PTX:  6 (potential) branch divergence @  PC=0x178 (_1.ptx:127) @%p4 bra $Lt_0_9218;
GPGPU-Sim PTX:    immediate post dominator      @  PC=0x310 (_1.ptx:188) st.global.f32 [%rd5+0], %f1;
GPGPU-Sim PTX:  7 (potential) branch divergence @  PC=0x250 (_1.ptx:157) @!%p5 bra $Lt_0_7426;
GPGPU-Sim PTX:    immediate post dominator      @  PC=0x2e8 (_1.ptx:180) add.s32 %r27, %r27, 1;
GPGPU-Sim PTX:  8 (potential) branch divergence @  PC=0x2e0 (_1.ptx:178) @%p6 bra $Lt_0_7938;
GPGPU-Sim PTX:    immediate post dominator      @  PC=0x2e8 (_1.ptx:180) add.s32 %r27, %r27, 1;
GPGPU-Sim PTX:  9 (potential) branch divergence @  PC=0x2f8 (_1.ptx:182) @%p7 bra $Lt_0_7170;
GPGPU-Sim PTX:    immediate post dominator      @  PC=0x300 (_1.ptx:183) bra.uni $Lt_0_6658;
GPGPU-Sim PTX: 10 (potential) branch divergence @  PC=0x300 (_1.ptx:183) bra.uni $Lt_0_6658;
GPGPU-Sim PTX:    immediate post dominator      @  PC=0x310 (_1.ptx:188) st.global.f32 [%rd5+0], %f1;
GPGPU-Sim PTX: 11 (potential) branch divergence @  PC=0x330 (_1.ptx:192) @%p8 bra $Lt_0_5378;
GPGPU-Sim PTX:    immediate post dominator      @  PC=0x338 (_1.ptx:195) exit;
GPGPU-Sim PTX: ... end of reconvergence points for _Z17col2im_gpu_kernelIfEviPKT_iiiiiiiiPS0_
GPGPU-Sim PTX: ... done pre-decoding instructions for '_Z17col2im_gpu_kernelIfEviPKT_iiiiiiiiPS0_'.
GPGPU-Sim PTX: instruction assembly for function '_Z17col2im_gpu_kernelIdEviPKT_iiiiiiiiPS0_'...   done.
GPGPU-Sim PTX: finding reconvergence points for '_Z17col2im_gpu_kernelIdEviPKT_iiiiiiiiPS0_'...
GPGPU-Sim PTX: Finding dominators for '_Z17col2im_gpu_kernelIdEviPKT_iiiiiiiiPS0_'...
GPGPU-Sim PTX: Finding immediate dominators for '_Z17col2im_gpu_kernelIdEviPKT_iiiiiiiiPS0_'...
GPGPU-Sim PTX: Finding postdominators for '_Z17col2im_gpu_kernelIdEviPKT_iiiiiiiiPS0_'...
GPGPU-Sim PTX: Finding immediate postdominators for '_Z17col2im_gpu_kernelIdEviPKT_iiiiiiiiPS0_'...
GPGPU-Sim PTX: pre-decoding instructions for '_Z17col2im_gpu_kernelIdEviPKT_iiiiiiiiPS0_'...
GPGPU-Sim PTX: reconvergence points for _Z17col2im_gpu_kernelIdEviPKT_iiiiiiiiPS0_...
GPGPU-Sim PTX:  1 (potential) branch divergence @  PC=0x380 (_1.ptx:227) @%p1 bra $Lt_1_4866;
GPGPU-Sim PTX:    immediate post dominator      @  PC=0x678 (_1.ptx:343) exit;
GPGPU-Sim PTX:  2 (potential) branch divergence @  PC=0x410 (_1.ptx:247) @%p2 bra $Lt_1_5890;
GPGPU-Sim PTX:    immediate post dominator      @  PC=0x440 (_1.ptx:256) div.s32 %r21, %r6, %r15;
GPGPU-Sim PTX:  3 (potential) branch divergence @  PC=0x430 (_1.ptx:252) bra.uni $Lt_1_5634;
GPGPU-Sim PTX:    immediate post dominator      @  PC=0x440 (_1.ptx:256) div.s32 %r21, %r6, %r15;
GPGPU-Sim PTX:  4 (potential) branch divergence @  PC=0x460 (_1.ptx:260) @%p3 bra $Lt_1_6402;
GPGPU-Sim PTX:    immediate post dominator      @  PC=0x490 (_1.ptx:270) mov.s32 %r27, %r26;
GPGPU-Sim PTX:  5 (potential) branch divergence @  PC=0x480 (_1.ptx:265) bra.uni $Lt_1_6146;
GPGPU-Sim PTX:    immediate post dominator      @  PC=0x490 (_1.ptx:270) mov.s32 %r27, %r26;
GPGPU-Sim PTX:  6 (potential) branch divergence @  PC=0x4b8 (_1.ptx:275) @%p4 bra $Lt_1_9218;
GPGPU-Sim PTX:    immediate post dominator      @  PC=0x650 (_1.ptx:336) st.global.f64 [%rd5+0], %fd1;
GPGPU-Sim PTX:  7 (potential) branch divergence @  PC=0x590 (_1.ptx:305) @!%p5 bra $Lt_1_7426;
GPGPU-Sim PTX:    immediate post dominator      @  PC=0x628 (_1.ptx:328) add.s32 %r27, %r27, 1;
GPGPU-Sim PTX:  8 (potential) branch divergence @  PC=0x620 (_1.ptx:326) @%p6 bra $Lt_1_7938;
GPGPU-Sim PTX:    immediate post dominator      @  PC=0x628 (_1.ptx:328) add.s32 %r27, %r27, 1;
GPGPU-Sim PTX:  9 (potential) branch divergence @  PC=0x638 (_1.ptx:330) @%p7 bra $Lt_1_7170;
GPGPU-Sim PTX:    immediate post dominator      @  PC=0x640 (_1.ptx:331) bra.uni $Lt_1_6658;
GPGPU-Sim PTX: 10 (potential) branch divergence @  PC=0x640 (_1.ptx:331) bra.uni $Lt_1_6658;
GPGPU-Sim PTX:    immediate post dominator      @  PC=0x650 (_1.ptx:336) st.global.f64 [%rd5+0], %fd1;
GPGPU-Sim PTX: 11 (potential) branch divergence @  PC=0x670 (_1.ptx:340) @%p8 bra $Lt_1_5378;
GPGPU-Sim PTX:    immediate post dominator      @  PC=0x678 (_1.ptx:343) exit;
GPGPU-Sim PTX: ... end of reconvergence points for _Z17col2im_gpu_kernelIdEviPKT_iiiiiiiiPS0_
GPGPU-Sim PTX: ... done pre-decoding instructions for '_Z17col2im_gpu_kernelIdEviPKT_iiiiiiiiPS0_'.
GPGPU-Sim PTX: finished parsing EMBEDDED .ptx file _1.ptx
Adding _cuobjdump_1.ptx with cubin handle 1
GPGPU-Sim PTX: extracting embedded .ptx to temporary file "_ptx_x6F4ZW"
Running: cat _ptx_x6F4ZW | sed 's/.version 1.5/.version 1.4/' | sed 's/, texmode_independent//' | sed 's/\(\.extern \.const\[1\] .b8 \w\+\)\[\]/\1\[1\]/' | sed 's/const\[.\]/const\[0\]/g' > _ptx2_Rb8MUk
GPGPU-Sim PTX: generating ptxinfo using "$CUDA_INSTALL_PATH/bin/ptxas --gpu-name=sm_20 -v _ptx2_Rb8MUk --output-file  /dev/null 2> _ptx_x6F4ZWinfo"
GPGPU-Sim PTX: Kernel '_Z17col2im_gpu_kernelIdEviPKT_iiiiiiiiPS0_' : regs=23, lmem=0, smem=0, cmem=88
GPGPU-Sim PTX: Kernel '_Z17col2im_gpu_kernelIfEviPKT_iiiiiiiiPS0_' : regs=21, lmem=0, smem=0, cmem=88
GPGPU-Sim PTX: removing ptxinfo using "rm -f _ptx_x6F4ZW _ptx2_Rb8MUk _ptx_x6F4ZWinfo"
GPGPU-Sim PTX: loading globals with explicit initializers... 
GPGPU-Sim PTX: finished loading globals (0 bytes total).
GPGPU-Sim PTX: loading constants with explicit initializers...  done.
GPGPU-Sim PTX: __cudaRegisterFunction _Z17col2im_gpu_kernelIfEviPKT_iiiiiiiiPS0_ : hostFun 0x0x401610, fat_cubin_handle = 1
GPGPU-Sim PTX: __cudaRegisterFatBinary, fat_cubin_handle = 2, filename=/home/bing/cu_learn/im2col/src/cuda_conv.cu
GPGPU-Sim PTX: __cudaRegisterFatBinary, fat_cubin_handle = 3, filename=/home/bing/cu_learn/im2col/src/fc.cu
GPGPU-Sim PTX: __cudaRegisterFunction _Z12BiasBackwardIfEviiPKT_PS0_ : hostFun 0x0x403fe0, fat_cubin_handle = 3
GPGPU-Sim PTX: instruction assembly for function '_Z13fc_gpu_kernelPfS_S_iii'...   done.
GPGPU-Sim PTX: finding reconvergence points for '_Z13fc_gpu_kernelPfS_S_iii'...
GPGPU-Sim PTX: Finding dominators for '_Z13fc_gpu_kernelPfS_S_iii'...
GPGPU-Sim PTX: Finding immediate dominators for '_Z13fc_gpu_kernelPfS_S_iii'...
GPGPU-Sim PTX: Finding postdominators for '_Z13fc_gpu_kernelPfS_S_iii'...
GPGPU-Sim PTX: Finding immediate postdominators for '_Z13fc_gpu_kernelPfS_S_iii'...
GPGPU-Sim PTX: pre-decoding instructions for '_Z13fc_gpu_kernelPfS_S_iii'...
GPGPU-Sim PTX: reconvergence points for _Z13fc_gpu_kernelPfS_S_iii...
GPGPU-Sim PTX:  1 (potential) branch divergence @  PC=0x718 (_3.ptx:84) @%p1 bra $Lt_0_2306;
GPGPU-Sim PTX:    immediate post dominator      @  PC=0x838 (_3.ptx:126) exit;
GPGPU-Sim PTX:  2 (potential) branch divergence @  PC=0x738 (_3.ptx:88) @%p2 bra $Lt_0_2818;
GPGPU-Sim PTX:    immediate post dominator      @  PC=0x838 (_3.ptx:126) exit;
GPGPU-Sim PTX:  3 (potential) branch divergence @  PC=0x830 (_3.ptx:122) @%p3 bra $Lt_0_3330;
GPGPU-Sim PTX:    immediate post dominator      @  PC=0x838 (_3.ptx:126) exit;
GPGPU-Sim PTX: ... end of reconvergence points for _Z13fc_gpu_kernelPfS_S_iii
GPGPU-Sim PTX: ... done pre-decoding instructions for '_Z13fc_gpu_kernelPfS_S_iii'.
GPGPU-Sim PTX: instruction assembly for function '_Z17convdw_gpu_kernelPfS_S_iii'...   done.
GPGPU-Sim PTX: finding reconvergence points for '_Z17convdw_gpu_kernelPfS_S_iii'...
GPGPU-Sim PTX: Finding dominators for '_Z17convdw_gpu_kernelPfS_S_iii'...
GPGPU-Sim PTX: Finding immediate dominators for '_Z17convdw_gpu_kernelPfS_S_iii'...
GPGPU-Sim PTX: Finding postdominators for '_Z17convdw_gpu_kernelPfS_S_iii'...
GPGPU-Sim PTX: Finding immediate postdominators for '_Z17convdw_gpu_kernelPfS_S_iii'...
GPGPU-Sim PTX: pre-decoding instructions for '_Z17convdw_gpu_kernelPfS_S_iii'...
GPGPU-Sim PTX: reconvergence points for _Z17convdw_gpu_kernelPfS_S_iii...
GPGPU-Sim PTX:  1 (potential) branch divergence @  PC=0x8d8 (_3.ptx:163) @%p1 bra $Lt_1_2306;
GPGPU-Sim PTX:    immediate post dominator      @  PC=0x9f8 (_3.ptx:205) exit;
GPGPU-Sim PTX:  2 (potential) branch divergence @  PC=0x8f8 (_3.ptx:167) @%p2 bra $Lt_1_2818;
GPGPU-Sim PTX:    immediate post dominator      @  PC=0x9f8 (_3.ptx:205) exit;
GPGPU-Sim PTX:  3 (potential) branch divergence @  PC=0x9f0 (_3.ptx:201) @%p3 bra $Lt_1_3330;
GPGPU-Sim PTX:    immediate post dominator      @  PC=0x9f8 (_3.ptx:205) exit;
GPGPU-Sim PTX: ... end of reconvergence points for _Z17convdw_gpu_kernelPfS_S_iii
GPGPU-Sim PTX: ... done pre-decoding instructions for '_Z17convdw_gpu_kernelPfS_S_iii'.
GPGPU-Sim PTX: instruction assembly for function '_Z17convdx_gpu_kernelPfS_S_iii'...   done.
GPGPU-Sim PTX: finding reconvergence points for '_Z17convdx_gpu_kernelPfS_S_iii'...
GPGPU-Sim PTX: Finding dominators for '_Z17convdx_gpu_kernelPfS_S_iii'...
GPGPU-Sim PTX: Finding immediate dominators for '_Z17convdx_gpu_kernelPfS_S_iii'...
GPGPU-Sim PTX: Finding postdominators for '_Z17convdx_gpu_kernelPfS_S_iii'...
GPGPU-Sim PTX: Finding immediate postdominators for '_Z17convdx_gpu_kernelPfS_S_iii'...
GPGPU-Sim PTX: pre-decoding instructions for '_Z17convdx_gpu_kernelPfS_S_iii'...
GPGPU-Sim PTX: reconvergence points for _Z17convdx_gpu_kernelPfS_S_iii...
GPGPU-Sim PTX:  1 (potential) branch divergence @  PC=0xa98 (_3.ptx:242) @%p1 bra $Lt_2_2306;
GPGPU-Sim PTX:    immediate post dominator      @  PC=0xbb0 (_3.ptx:283) exit;
GPGPU-Sim PTX:  2 (potential) branch divergence @  PC=0xab8 (_3.ptx:246) @%p2 bra $Lt_2_2818;
GPGPU-Sim PTX:    immediate post dominator      @  PC=0xbb0 (_3.ptx:283) exit;
GPGPU-Sim PTX:  3 (potential) branch divergence @  PC=0xba8 (_3.ptx:279) @%p3 bra $Lt_2_3330;
GPGPU-Sim PTX:    immediate post dominator      @  PC=0xbb0 (_3.ptx:283) exit;
GPGPU-Sim PTX: ... end of reconvergence points for _Z17convdx_gpu_kernelPfS_S_iii
GPGPU-Sim PTX: ... done pre-decoding instructions for '_Z17convdx_gpu_kernelPfS_S_iii'.
GPGPU-Sim PTX: instruction assembly for function '_Z11BiasForwardIfEvPT_S1_iii'...   done.
GPGPU-Sim PTX: finding reconvergence points for '_Z11BiasForwardIfEvPT_S1_iii'...
GPGPU-Sim PTX: Finding dominators for '_Z11BiasForwardIfEvPT_S1_iii'...
GPGPU-Sim PTX: Finding immediate dominators for '_Z11BiasForwardIfEvPT_S1_iii'...
GPGPU-Sim PTX: Finding postdominators for '_Z11BiasForwardIfEvPT_S1_iii'...
GPGPU-Sim PTX: Finding immediate postdominators for '_Z11BiasForwardIfEvPT_S1_iii'...
GPGPU-Sim PTX: pre-decoding instructions for '_Z11BiasForwardIfEvPT_S1_iii'...
GPGPU-Sim PTX: reconvergence points for _Z11BiasForwardIfEvPT_S1_iii...
GPGPU-Sim PTX:  1 (potential) branch divergence @  PC=0xc50 (_3.ptx:319) @%p1 bra $Lt_3_2306;
GPGPU-Sim PTX:    immediate post dominator      @  PC=0xd10 (_3.ptx:349) exit;
GPGPU-Sim PTX:  2 (potential) branch divergence @  PC=0xc70 (_3.ptx:323) @%p2 bra $Lt_3_2818;
GPGPU-Sim PTX:    immediate post dominator      @  PC=0xd10 (_3.ptx:349) exit;
GPGPU-Sim PTX:  3 (potential) branch divergence @  PC=0xd08 (_3.ptx:345) @%p3 bra $Lt_3_3330;
GPGPU-Sim PTX:    immediate post dominator      @  PC=0xd10 (_3.ptx:349) exit;
GPGPU-Sim PTX: ... end of reconvergence points for _Z11BiasForwardIfEvPT_S1_iii
GPGPU-Sim PTX: ... done pre-decoding instructions for '_Z11BiasForwardIfEvPT_S1_iii'.
GPGPU-Sim PTX: instruction assembly for function '_Z12BiasBackwardIfEviiPKT_PS0_'...   done.
GPGPU-Sim PTX: finding reconvergence points for '_Z12BiasBackwardIfEviiPKT_PS0_'...
GPGPU-Sim PTX: Finding dominators for '_Z12BiasBackwardIfEviiPKT_PS0_'...
GPGPU-Sim PTX: Finding immediate dominators for '_Z12BiasBackwardIfEviiPKT_PS0_'...
GPGPU-Sim PTX: Finding postdominators for '_Z12BiasBackwardIfEviiPKT_PS0_'...
GPGPU-Sim PTX: Finding immediate postdominators for '_Z12BiasBackwardIfEviiPKT_PS0_'...
GPGPU-Sim PTX: pre-decoding instructions for '_Z12BiasBackwardIfEviiPKT_PS0_'...
GPGPU-Sim PTX: reconvergence points for _Z12BiasBackwardIfEviiPKT_PS0_...
GPGPU-Sim PTX:  1 (potential) branch divergence @  PC=0xd58 (_3.ptx:374) @%p1 bra $Lt_4_1282;
GPGPU-Sim PTX:    immediate post dominator      @  PC=0xe30 (_3.ptx:406) exit;
GPGPU-Sim PTX:  2 (potential) branch divergence @  PC=0xe28 (_3.ptx:403) @%p2 bra $Lt_4_1794;
GPGPU-Sim PTX:    immediate post dominator      @  PC=0xe30 (_3.ptx:406) exit;
GPGPU-Sim PTX: ... end of reconvergence points for _Z12BiasBackwardIfEviiPKT_PS0_
GPGPU-Sim PTX: ... done pre-decoding instructions for '_Z12BiasBackwardIfEviiPKT_PS0_'.
GPGPU-Sim PTX: finished parsing EMBEDDED .ptx file _3.ptx
Adding _cuobjdump_3.ptx with cubin handle 3
GPGPU-Sim PTX: extracting embedded .ptx to temporary file "_ptx_wNdPbJ"
Running: cat _ptx_wNdPbJ | sed 's/.version 1.5/.version 1.4/' | sed 's/, texmode_independent//' | sed 's/\(\.extern \.const\[1\] .b8 \w\+\)\[\]/\1\[1\]/' | sed 's/const\[.\]/const\[0\]/g' > _ptx2_g4tpu7
GPGPU-Sim PTX: generating ptxinfo using "$CUDA_INSTALL_PATH/bin/ptxas --gpu-name=sm_20 -v _ptx2_g4tpu7 --output-file  /dev/null 2> _ptx_wNdPbJinfo"
GPGPU-Sim PTX: Kernel '_Z12BiasBackwardIfEviiPKT_PS0_' : regs=13, lmem=0, smem=0, cmem=56
GPGPU-Sim PTX: Kernel '_Z11BiasForwardIfEvPT_S1_iii' : regs=10, lmem=0, smem=0, cmem=60
GPGPU-Sim PTX: Kernel '_Z17convdx_gpu_kernelPfS_S_iii' : regs=12, lmem=0, smem=0, cmem=68
GPGPU-Sim PTX: Kernel '_Z17convdw_gpu_kernelPfS_S_iii' : regs=15, lmem=0, smem=0, cmem=68
GPGPU-Sim PTX: Kernel '_Z13fc_gpu_kernelPfS_S_iii' : regs=14, lmem=0, smem=0, cmem=68
GPGPU-Sim PTX: removing ptxinfo using "rm -f _ptx_wNdPbJ _ptx2_g4tpu7 _ptx_wNdPbJinfo"
GPGPU-Sim PTX: loading globals with explicit initializers... 
GPGPU-Sim PTX: finished loading globals (0 bytes total).
GPGPU-Sim PTX: loading constants with explicit initializers...  done.
GPGPU-Sim PTX: __cudaRegisterFunction _Z11BiasForwardIfEvPT_S1_iii : hostFun 0x0x403fd0, fat_cubin_handle = 3
GPGPU-Sim PTX: __cudaRegisterFunction _Z17convdx_gpu_kernelPfS_S_iii : hostFun 0x0x402c10, fat_cubin_handle = 3
GPGPU-Sim PTX: __cudaRegisterFunction _Z17convdw_gpu_kernelPfS_S_iii : hostFun 0x0x402d00, fat_cubin_handle = 3
GPGPU-Sim PTX: __cudaRegisterFunction _Z13fc_gpu_kernelPfS_S_iii : hostFun 0x0x402df0, fat_cubin_handle = 3
GPGPU-Sim PTX: __cudaRegisterFatBinary, fat_cubin_handle = 4, filename=/home/bing/cu_learn/im2col/src/im2col.cu
GPGPU-Sim PTX: __cudaRegisterFunction _Z17im2col_gpu_kernelIdEviPKT_iiiiiiiPS0_ : hostFun 0x0x4047b0, fat_cubin_handle = 4
GPGPU-Sim PTX: instruction assembly for function '_Z17im2col_gpu_kernelIfEviPKT_iiiiiiiPS0_'...   done.
GPGPU-Sim PTX: finding reconvergence points for '_Z17im2col_gpu_kernelIfEviPKT_iiiiiiiPS0_'...
GPGPU-Sim PTX: Finding dominators for '_Z17im2col_gpu_kernelIfEviPKT_iiiiiiiPS0_'...
GPGPU-Sim PTX: Finding immediate dominators for '_Z17im2col_gpu_kernelIfEviPKT_iiiiiiiPS0_'...
GPGPU-Sim PTX: Finding postdominators for '_Z17im2col_gpu_kernelIfEviPKT_iiiiiiiPS0_'...
GPGPU-Sim PTX: Finding immediate postdominators for '_Z17im2col_gpu_kernelIfEviPKT_iiiiiiiPS0_'...
GPGPU-Sim PTX: pre-decoding instructions for '_Z17im2col_gpu_kernelIfEviPKT_iiiiiiiPS0_'...
GPGPU-Sim PTX: reconvergence points for _Z17im2col_gpu_kernelIfEviPKT_iiiiiiiPS0_...
GPGPU-Sim PTX:  1 (potential) branch divergence @  PC=0xe78 (_4.ptx:78) @%p1 bra $Lt_0_6146;
GPGPU-Sim PTX:    immediate post dominator      @  PC=0x1118 (_4.ptx:177) exit;
GPGPU-Sim PTX:  2 (potential) branch divergence @  PC=0xf28 (_4.ptx:103) @!%p2 bra $Lt_0_6914;
GPGPU-Sim PTX:    immediate post dominator      @  PC=0x1100 (_4.ptx:172) add.u32 %r6, %r6, %r11;
GPGPU-Sim PTX:  3 (potential) branch divergence @  PC=0x1020 (_4.ptx:139) @!%p3 bra $Lt_0_10242;
GPGPU-Sim PTX:    immediate post dominator      @  PC=0x10a8 (_4.ptx:160) st.global.f32 [%rd12+0], %f1;
GPGPU-Sim PTX:  4 (potential) branch divergence @  PC=0x1040 (_4.ptx:143) @%p4 bra $Lt_0_10242;
GPGPU-Sim PTX:    immediate post dominator      @  PC=0x10a8 (_4.ptx:160) st.global.f32 [%rd12+0], %f1;
GPGPU-Sim PTX:  5 (potential) branch divergence @  PC=0x1050 (_4.ptx:145) @%p5 bra $Lt_0_10242;
GPGPU-Sim PTX:    immediate post dominator      @  PC=0x10a8 (_4.ptx:160) st.global.f32 [%rd12+0], %f1;
GPGPU-Sim PTX:  6 (potential) branch divergence @  PC=0x1060 (_4.ptx:147) @%p6 bra $Lt_0_10242;
GPGPU-Sim PTX:    immediate post dominator      @  PC=0x10a8 (_4.ptx:160) st.global.f32 [%rd12+0], %f1;
GPGPU-Sim PTX:  7 (potential) branch divergence @  PC=0x1098 (_4.ptx:155) bra.uni $L_0_4866;
GPGPU-Sim PTX:    immediate post dominator      @  PC=0x10a8 (_4.ptx:160) st.global.f32 [%rd12+0], %f1;
GPGPU-Sim PTX:  8 (potential) branch divergence @  PC=0x10c8 (_4.ptx:164) @%p7 bra $Lt_0_8194;
GPGPU-Sim PTX:    immediate post dominator      @  PC=0x10d0 (_4.ptx:165) mul.lo.u64 %rd16, %rd10, %rd9;
GPGPU-Sim PTX:  9 (potential) branch divergence @  PC=0x10f8 (_4.ptx:170) @%p8 bra $Lt_0_7426;
GPGPU-Sim PTX:    immediate post dominator      @  PC=0x1100 (_4.ptx:172) add.u32 %r6, %r6, %r11;
GPGPU-Sim PTX: 10 (potential) branch divergence @  PC=0x1110 (_4.ptx:174) @%p9 bra $Lt_0_6658;
GPGPU-Sim PTX:    immediate post dominator      @  PC=0x1118 (_4.ptx:177) exit;
GPGPU-Sim PTX: ... end of reconvergence points for _Z17im2col_gpu_kernelIfEviPKT_iiiiiiiPS0_
GPGPU-Sim PTX: ... done pre-decoding instructions for '_Z17im2col_gpu_kernelIfEviPKT_iiiiiiiPS0_'.
GPGPU-Sim PTX: instruction assembly for function '_Z17im2col_gpu_kernelIdEviPKT_iiiiiiiPS0_'...   done.
GPGPU-Sim PTX: finding reconvergence points for '_Z17im2col_gpu_kernelIdEviPKT_iiiiiiiPS0_'...
GPGPU-Sim PTX: Finding dominators for '_Z17im2col_gpu_kernelIdEviPKT_iiiiiiiPS0_'...
GPGPU-Sim PTX: Finding immediate dominators for '_Z17im2col_gpu_kernelIdEviPKT_iiiiiiiPS0_'...
GPGPU-Sim PTX: Finding postdominators for '_Z17im2col_gpu_kernelIdEviPKT_iiiiiiiPS0_'...
GPGPU-Sim PTX: Finding immediate postdominators for '_Z17im2col_gpu_kernelIdEviPKT_iiiiiiiPS0_'...
GPGPU-Sim PTX: pre-decoding instructions for '_Z17im2col_gpu_kernelIdEviPKT_iiiiiiiPS0_'...
GPGPU-Sim PTX: reconvergence points for _Z17im2col_gpu_kernelIdEviPKT_iiiiiiiPS0_...
GPGPU-Sim PTX:  1 (potential) branch divergence @  PC=0x1160 (_4.ptx:208) @%p1 bra $Lt_1_6146;
GPGPU-Sim PTX:    immediate post dominator      @  PC=0x1400 (_4.ptx:307) exit;
GPGPU-Sim PTX:  2 (potential) branch divergence @  PC=0x1210 (_4.ptx:233) @!%p2 bra $Lt_1_6914;
GPGPU-Sim PTX:    immediate post dominator      @  PC=0x13e8 (_4.ptx:302) add.u32 %r6, %r6, %r11;
GPGPU-Sim PTX:  3 (potential) branch divergence @  PC=0x1308 (_4.ptx:269) @!%p3 bra $Lt_1_10242;
GPGPU-Sim PTX:    immediate post dominator      @  PC=0x1390 (_4.ptx:290) st.global.f64 [%rd12+0], %fd1;
GPGPU-Sim PTX:  4 (potential) branch divergence @  PC=0x1328 (_4.ptx:273) @%p4 bra $Lt_1_10242;
GPGPU-Sim PTX:    immediate post dominator      @  PC=0x1390 (_4.ptx:290) st.global.f64 [%rd12+0], %fd1;
GPGPU-Sim PTX:  5 (potential) branch divergence @  PC=0x1338 (_4.ptx:275) @%p5 bra $Lt_1_10242;
GPGPU-Sim PTX:    immediate post dominator      @  PC=0x1390 (_4.ptx:290) st.global.f64 [%rd12+0], %fd1;
GPGPU-Sim PTX:  6 (potential) branch divergence @  PC=0x1348 (_4.ptx:277) @%p6 bra $Lt_1_10242;
GPGPU-Sim PTX:    immediate post dominator      @  PC=0x1390 (_4.ptx:290) st.global.f64 [%rd12+0], %fd1;
GPGPU-Sim PTX:  7 (potential) branch divergence @  PC=0x1380 (_4.ptx:285) bra.uni $L_1_4866;
GPGPU-Sim PTX:    immediate post dominator      @  PC=0x1390 (_4.ptx:290) st.global.f64 [%rd12+0], %fd1;
GPGPU-Sim PTX:  8 (potential) branch divergence @  PC=0x13b0 (_4.ptx:294) @%p7 bra $Lt_1_8194;
GPGPU-Sim PTX:    immediate post dominator      @  PC=0x13b8 (_4.ptx:295) mul.lo.u64 %rd16, %rd10, %rd9;
GPGPU-Sim PTX:  9 (potential) branch divergence @  PC=0x13e0 (_4.ptx:300) @%p8 bra $Lt_1_7426;
GPGPU-Sim PTX:    immediate post dominator      @  PC=0x13e8 (_4.ptx:302) add.u32 %r6, %r6, %r11;
GPGPU-Sim PTX: 10 (potential) branch divergence @  PC=0x13f8 (_4.ptx:304) @%p9 bra $Lt_1_6658;
GPGPU-Sim PTX:    immediate post dominator      @  PC=0x1400 (_4.ptx:307) exit;
GPGPU-Sim PTX: ... end of reconvergence points for _Z17im2col_gpu_kernelIdEviPKT_iiiiiiiPS0_
GPGPU-Sim PTX: ... done pre-decoding instructions for '_Z17im2col_gpu_kernelIdEviPKT_iiiiiiiPS0_'.
GPGPU-Sim PTX: finished parsing EMBEDDED .ptx file _4.ptx
Adding _cuobjdump_4.ptx with cubin handle 4
GPGPU-Sim PTX: extracting embedded .ptx to temporary file "_ptx_H2xT3v"
Running: cat _ptx_H2xT3v | sed 's/.version 1.5/.version 1.4/' | sed 's/, texmode_independent//' | sed 's/\(\.extern \.const\[1\] .b8 \w\+\)\[\]/\1\[1\]/' | sed 's/const\[.\]/const\[0\]/g' > _ptx2_KlnLEU
GPGPU-Sim PTX: generating ptxinfo using "$CUDA_INSTALL_PATH/bin/ptxas --gpu-name=sm_20 -v _ptx2_KlnLEU --output-file  /dev/null 2> _ptx_H2xT3vinfo"
GPGPU-Sim PTX: Kernel '_Z17im2col_gpu_kernelIdEviPKT_iiiiiiiPS0_' : regs=23, lmem=0, smem=0, cmem=88
GPGPU-Sim PTX: Kernel '_Z17im2col_gpu_kernelIfEviPKT_iiiiiiiPS0_' : regs=21, lmem=0, smem=0, cmem=88
GPGPU-Sim PTX: removing ptxinfo using "rm -f _ptx_H2xT3v _ptx2_KlnLEU _ptx_H2xT3vinfo"
GPGPU-Sim PTX: loading globals with explicit initializers... 
GPGPU-Sim PTX: finished loading globals (0 bytes total).
GPGPU-Sim PTX: loading constants with explicit initializers...  done.
GPGPU-Sim PTX: __cudaRegisterFunction _Z17im2col_gpu_kernelIfEviPKT_iiiiiiiPS0_ : hostFun 0x0x4047c0, fat_cubin_handle = 4
GPGPU-Sim PTX: __cudaRegisterFatBinary, fat_cubin_handle = 5, filename=/home/bing/cu_learn/im2col/src/pooling.cu
GPGPU-Sim PTX: __cudaRegisterFunction _Z14MaxPoolForwardIfEviPKT_iiiiiiiiPS0_Pi : hostFun 0x0x405760, fat_cubin_handle = 5
GPGPU-Sim PTX: instruction assembly for function '_Z15MaxPoolBackwardIfEviPKT_PKiiiiiiiiiiiiPS0_'...   done.
GPGPU-Sim PTX: finding reconvergence points for '_Z15MaxPoolBackwardIfEviPKT_PKiiiiiiiiiiiiPS0_'...
GPGPU-Sim PTX: Finding dominators for '_Z15MaxPoolBackwardIfEviPKT_PKiiiiiiiiiiiiPS0_'...
GPGPU-Sim PTX: Finding immediate dominators for '_Z15MaxPoolBackwardIfEviPKT_PKiiiiiiiiiiiiPS0_'...
GPGPU-Sim PTX: Finding postdominators for '_Z15MaxPoolBackwardIfEviPKT_PKiiiiiiiiiiiiPS0_'...
GPGPU-Sim PTX: Finding immediate postdominators for '_Z15MaxPoolBackwardIfEviPKT_PKiiiiiiiiiiiiPS0_'...
GPGPU-Sim PTX: pre-decoding instructions for '_Z15MaxPoolBackwardIfEviPKT_PKiiiiiiiiiiiiPS0_'...
GPGPU-Sim PTX: reconvergence points for _Z15MaxPoolBackwardIfEviPKT_PKiiiiiiiiiiiiPS0_...
GPGPU-Sim PTX:  1 (potential) branch divergence @  PC=0x1448 (_5.ptx:83) @%p1 bra $Lt_0_5634;
GPGPU-Sim PTX:    immediate post dominator      @  PC=0x1750 (_5.ptx:201) exit;
GPGPU-Sim PTX:  2 (potential) branch divergence @  PC=0x14f0 (_5.ptx:106) @%p2 bra $Lt_0_6658;
GPGPU-Sim PTX:    immediate post dominator      @  PC=0x1520 (_5.ptx:115) rem.s32 %r24, %r6, %r17;
GPGPU-Sim PTX:  3 (potential) branch divergence @  PC=0x1510 (_5.ptx:111) bra.uni $Lt_0_6402;
GPGPU-Sim PTX:    immediate post dominator      @  PC=0x1520 (_5.ptx:115) rem.s32 %r24, %r6, %r17;
GPGPU-Sim PTX:  4 (potential) branch divergence @  PC=0x1538 (_5.ptx:118) @%p3 bra $Lt_0_7170;
GPGPU-Sim PTX:    immediate post dominator      @  PC=0x1570 (_5.ptx:129) mov.s32 %r30, %r23;
GPGPU-Sim PTX:  5 (potential) branch divergence @  PC=0x1560 (_5.ptx:124) bra.uni $Lt_0_6914;
GPGPU-Sim PTX:    immediate post dominator      @  PC=0x1570 (_5.ptx:129) mov.s32 %r30, %r23;
GPGPU-Sim PTX:  6 (potential) branch divergence @  PC=0x1598 (_5.ptx:134) @%p4 bra $Lt_0_10498;
GPGPU-Sim PTX:    immediate post dominator      @  PC=0x1728 (_5.ptx:194) st.global.f32 [%rd5+0], %f1;
GPGPU-Sim PTX:  7 (potential) branch divergence @  PC=0x1658 (_5.ptx:160) @!%p5 bra $Lt_0_8194;
GPGPU-Sim PTX:    immediate post dominator      @  PC=0x1700 (_5.ptx:186) add.s32 %r30, %r30, 1;
GPGPU-Sim PTX:  8 (potential) branch divergence @  PC=0x16c0 (_5.ptx:175) @%p6 bra $Lt_0_8962;
GPGPU-Sim PTX:    immediate post dominator      @  PC=0x16e0 (_5.ptx:181) add.s32 %r51, %r51, 1;
GPGPU-Sim PTX:  9 (potential) branch divergence @  PC=0x16f8 (_5.ptx:184) @%p7 bra $Lt_0_8706;
GPGPU-Sim PTX:    immediate post dominator      @  PC=0x1700 (_5.ptx:186) add.s32 %r30, %r30, 1;
GPGPU-Sim PTX: 10 (potential) branch divergence @  PC=0x1710 (_5.ptx:188) @%p8 bra $Lt_0_7938;
GPGPU-Sim PTX:    immediate post dominator      @  PC=0x1718 (_5.ptx:189) bra.uni $Lt_0_7426;
GPGPU-Sim PTX: 11 (potential) branch divergence @  PC=0x1718 (_5.ptx:189) bra.uni $Lt_0_7426;
GPGPU-Sim PTX:    immediate post dominator      @  PC=0x1728 (_5.ptx:194) st.global.f32 [%rd5+0], %f1;
GPGPU-Sim PTX: 12 (potential) branch divergence @  PC=0x1748 (_5.ptx:198) @%p9 bra $Lt_0_6146;
GPGPU-Sim PTX:    immediate post dominator      @  PC=0x1750 (_5.ptx:201) exit;
GPGPU-Sim PTX: ... end of reconvergence points for _Z15MaxPoolBackwardIfEviPKT_PKiiiiiiiiiiiiPS0_
GPGPU-Sim PTX: ... done pre-decoding instructions for '_Z15MaxPoolBackwardIfEviPKT_PKiiiiiiiiiiiiPS0_'.
GPGPU-Sim PTX: instruction assembly for function '_Z14MaxPoolForwardIfEviPKT_iiiiiiiiPS0_Pi'...   done.
GPGPU-Sim PTX: finding reconvergence points for '_Z14MaxPoolForwardIfEviPKT_iiiiiiiiPS0_Pi'...
GPGPU-Sim PTX: Finding dominators for '_Z14MaxPoolForwardIfEviPKT_iiiiiiiiPS0_Pi'...
GPGPU-Sim PTX: Finding immediate dominators for '_Z14MaxPoolForwardIfEviPKT_iiiiiiiiPS0_Pi'...
GPGPU-Sim PTX: Finding postdominators for '_Z14MaxPoolForwardIfEviPKT_iiiiiiiiPS0_Pi'...
GPGPU-Sim PTX: Finding immediate postdominators for '_Z14MaxPoolForwardIfEviPKT_iiiiiiiiPS0_Pi'...
GPGPU-Sim PTX: pre-decoding instructions for '_Z14MaxPoolForwardIfEviPKT_iiiiiiiiPS0_Pi'...
GPGPU-Sim PTX: reconvergence points for _Z14MaxPoolForwardIfEviPKT_iiiiiiiiPS0_Pi...
GPGPU-Sim PTX:  1 (potential) branch divergence @  PC=0x1798 (_5.ptx:234) @%p1 bra $Lt_1_4098;
GPGPU-Sim PTX:    immediate post dominator      @  PC=0x1a38 (_5.ptx:335) exit;
GPGPU-Sim PTX:  2 (potential) branch divergence @  PC=0x1870 (_5.ptx:264) @%p2 bra $Lt_1_7938;
GPGPU-Sim PTX:    immediate post dominator      @  PC=0x1a00 (_5.ptx:325) st.global.f32 [%rd5+0], %f1;
GPGPU-Sim PTX:  3 (potential) branch divergence @  PC=0x1940 (_5.ptx:292) @!%p3 bra $Lt_1_5634;
GPGPU-Sim PTX:    immediate post dominator      @  PC=0x19d0 (_5.ptx:316) add.s32 %r22, %r22, 1;
GPGPU-Sim PTX:  4 (potential) branch divergence @  PC=0x1998 (_5.ptx:305) @!%p4 bra $Lt_1_6402;
GPGPU-Sim PTX:    immediate post dominator      @  PC=0x19b0 (_5.ptx:311) add.s32 %r46, %r46, 1;
GPGPU-Sim PTX:  5 (potential) branch divergence @  PC=0x19c8 (_5.ptx:314) @%p5 bra $Lt_1_6146;
GPGPU-Sim PTX:    immediate post dominator      @  PC=0x19d0 (_5.ptx:316) add.s32 %r22, %r22, 1;
GPGPU-Sim PTX:  6 (potential) branch divergence @  PC=0x19e0 (_5.ptx:318) @%p6 bra $Lt_1_5378;
GPGPU-Sim PTX:    immediate post dominator      @  PC=0x19e8 (_5.ptx:319) bra.uni $Lt_1_4866;
GPGPU-Sim PTX:  7 (potential) branch divergence @  PC=0x19e8 (_5.ptx:319) bra.uni $Lt_1_4866;
GPGPU-Sim PTX:    immediate post dominator      @  PC=0x1a00 (_5.ptx:325) st.global.f32 [%rd5+0], %f1;
GPGPU-Sim PTX:  8 (potential) branch divergence @  PC=0x1a30 (_5.ptx:332) @%p7 bra $Lt_1_4610;
GPGPU-Sim PTX:    immediate post dominator      @  PC=0x1a38 (_5.ptx:335) exit;
GPGPU-Sim PTX: ... end of reconvergence points for _Z14MaxPoolForwardIfEviPKT_iiiiiiiiPS0_Pi
GPGPU-Sim PTX: ... done pre-decoding instructions for '_Z14MaxPoolForwardIfEviPKT_iiiiiiiiPS0_Pi'.
GPGPU-Sim PTX: finished parsing EMBEDDED .ptx file _5.ptx
Adding _cuobjdump_5.ptx with cubin handle 5
GPGPU-Sim PTX: extracting embedded .ptx to temporary file "_ptx_6f2GBj"
Running: cat _ptx_6f2GBj | sed 's/.version 1.5/.version 1.4/' | sed 's/, texmode_independent//' | sed 's/\(\.extern \.const\[1\] .b8 \w\+\)\[\]/\1\[1\]/' | sed 's/const\[.\]/const\[0\]/g' > _ptx2_K93FyI
GPGPU-Sim PTX: generating ptxinfo using "$CUDA_INSTALL_PATH/bin/ptxas --gpu-name=sm_20 -v _ptx2_K93FyI --output-file  /dev/null 2> _ptx_6f2GBjinfo"
GPGPU-Sim PTX: Kernel '_Z14MaxPoolForwardIfEviPKT_iiiiiiiiPS0_Pi' : regs=22, lmem=0, smem=0, cmem=96
GPGPU-Sim PTX: Kernel '_Z15MaxPoolBackwardIfEviPKT_PKiiiiiiiiiiiiPS0_' : regs=23, lmem=0, smem=0, cmem=112
GPGPU-Sim PTX: removing ptxinfo using "rm -f _ptx_6f2GBj _ptx2_K93FyI _ptx_6f2GBjinfo"
GPGPU-Sim PTX: loading globals with explicit initializers... 
GPGPU-Sim PTX: finished loading globals (0 bytes total).
GPGPU-Sim PTX: loading constants with explicit initializers...  done.
GPGPU-Sim PTX: __cudaRegisterFunction _Z15MaxPoolBackwardIfEviPKT_PKiiiiiiiiiiiiPS0_ : hostFun 0x0x405750, fat_cubin_handle = 5
GPGPU-Sim PTX: __cudaRegisterFatBinary, fat_cubin_handle = 6, filename=/home/bing/cu_learn/im2col/src/sigmoid.cu
GPGPU-Sim PTX: __cudaRegisterFunction _Z14SigmoidForwardIfEviPKT_PS0_ : hostFun 0x0x406100, fat_cubin_handle = 6
GPGPU-Sim PTX: instruction assembly for function '_Z12ReLUBackwardIfEviPKT_S2_PS0_'...   done.
GPGPU-Sim PTX: finding reconvergence points for '_Z12ReLUBackwardIfEviPKT_S2_PS0_'...
GPGPU-Sim PTX: Finding dominators for '_Z12ReLUBackwardIfEviPKT_S2_PS0_'...
GPGPU-Sim PTX: Finding immediate dominators for '_Z12ReLUBackwardIfEviPKT_S2_PS0_'...
GPGPU-Sim PTX: Finding postdominators for '_Z12ReLUBackwardIfEviPKT_S2_PS0_'...
GPGPU-Sim PTX: Finding immediate postdominators for '_Z12ReLUBackwardIfEviPKT_S2_PS0_'...
GPGPU-Sim PTX: pre-decoding instructions for '_Z12ReLUBackwardIfEviPKT_S2_PS0_'...
GPGPU-Sim PTX: reconvergence points for _Z12ReLUBackwardIfEviPKT_S2_PS0_...
GPGPU-Sim PTX:  1 (potential) branch divergence @  PC=0x1a80 (_6.ptx:72) @%p1 bra $Lt_0_2050;
GPGPU-Sim PTX:    immediate post dominator      @  PC=0x1b48 (_6.ptx:104) exit;
GPGPU-Sim PTX:  2 (potential) branch divergence @  PC=0x1ae0 (_6.ptx:86) @!%p2 bra $Lt_0_3074;
GPGPU-Sim PTX:    immediate post dominator      @  PC=0x1b10 (_6.ptx:95) add.u64 %rd9, %rd2, %rd4;
GPGPU-Sim PTX:  3 (potential) branch divergence @  PC=0x1b00 (_6.ptx:91) bra.uni $Lt_0_2818;
GPGPU-Sim PTX:    immediate post dominator      @  PC=0x1b10 (_6.ptx:95) add.u64 %rd9, %rd2, %rd4;
GPGPU-Sim PTX:  4 (potential) branch divergence @  PC=0x1b40 (_6.ptx:101) @%p3 bra $Lt_0_2562;
GPGPU-Sim PTX:    immediate post dominator      @  PC=0x1b48 (_6.ptx:104) exit;
GPGPU-Sim PTX: ... end of reconvergence points for _Z12ReLUBackwardIfEviPKT_S2_PS0_
GPGPU-Sim PTX: ... done pre-decoding instructions for '_Z12ReLUBackwardIfEviPKT_S2_PS0_'.
GPGPU-Sim PTX: instruction assembly for function '_Z11ReLUForwardIfEviPKT_PS0_'...   done.
GPGPU-Sim PTX: finding reconvergence points for '_Z11ReLUForwardIfEviPKT_PS0_'...
GPGPU-Sim PTX: Finding dominators for '_Z11ReLUForwardIfEviPKT_PS0_'...
GPGPU-Sim PTX: Finding immediate dominators for '_Z11ReLUForwardIfEviPKT_PS0_'...
GPGPU-Sim PTX: Finding postdominators for '_Z11ReLUForwardIfEviPKT_PS0_'...
GPGPU-Sim PTX: Finding immediate postdominators for '_Z11ReLUForwardIfEviPKT_PS0_'...
GPGPU-Sim PTX: pre-decoding instructions for '_Z11ReLUForwardIfEviPKT_PS0_'...
GPGPU-Sim PTX: reconvergence points for _Z11ReLUForwardIfEviPKT_PS0_...
GPGPU-Sim PTX:  1 (potential) branch divergence @  PC=0x1b90 (_6.ptx:128) @%p1 bra $Lt_1_1794;
GPGPU-Sim PTX:    immediate post dominator      @  PC=0x1c30 (_6.ptx:153) exit;
GPGPU-Sim PTX:  2 (potential) branch divergence @  PC=0x1c28 (_6.ptx:150) @%p2 bra $Lt_1_2306;
GPGPU-Sim PTX:    immediate post dominator      @  PC=0x1c30 (_6.ptx:153) exit;
GPGPU-Sim PTX: ... end of reconvergence points for _Z11ReLUForwardIfEviPKT_PS0_
GPGPU-Sim PTX: ... done pre-decoding instructions for '_Z11ReLUForwardIfEviPKT_PS0_'.
GPGPU-Sim PTX: instruction assembly for function '_Z14SigmoidForwardIfEviPKT_PS0_'...   done.
GPGPU-Sim PTX: finding reconvergence points for '_Z14SigmoidForwardIfEviPKT_PS0_'...
GPGPU-Sim PTX: Finding dominators for '_Z14SigmoidForwardIfEviPKT_PS0_'...
GPGPU-Sim PTX: Finding immediate dominators for '_Z14SigmoidForwardIfEviPKT_PS0_'...
GPGPU-Sim PTX: Finding postdominators for '_Z14SigmoidForwardIfEviPKT_PS0_'...
GPGPU-Sim PTX: Finding immediate postdominators for '_Z14SigmoidForwardIfEviPKT_PS0_'...
GPGPU-Sim PTX: pre-decoding instructions for '_Z14SigmoidForwardIfEviPKT_PS0_'...
GPGPU-Sim PTX: reconvergence points for _Z14SigmoidForwardIfEviPKT_PS0_...
GPGPU-Sim PTX:  1 (potential) branch divergence @  PC=0x1c78 (_6.ptx:178) @%p1 bra $Lt_2_4354;
GPGPU-Sim PTX:    immediate post dominator      @  PC=0x2088 (_6.ptx:341) exit;
GPGPU-Sim PTX:  2 (potential) branch divergence @  PC=0x1d08 (_6.ptx:199) @!%p2 bra $Lt_2_5378;
GPGPU-Sim PTX:    immediate post dominator      @  PC=0x2038 (_6.ptx:329) mov.f64 %fd73, 0d3fe0000000000000;// 0.5
GPGPU-Sim PTX:  3 (potential) branch divergence @  PC=0x1e38 (_6.ptx:248) @%p3 bra $Lt_2_5890;
GPGPU-Sim PTX:    immediate post dominator      @  PC=0x1ed0 (_6.ptx:275) mov.f64 %fd42, 0d3ff0000000000000;// 1
GPGPU-Sim PTX:  4 (potential) branch divergence @  PC=0x1e58 (_6.ptx:253) bra.uni $Lt_2_5634;
GPGPU-Sim PTX:    immediate post dominator      @  PC=0x1ed0 (_6.ptx:275) mov.f64 %fd42, 0d3ff0000000000000;// 1
GPGPU-Sim PTX:  5 (potential) branch divergence @  PC=0x1e70 (_6.ptx:257) @%p4 bra $Lt_2_6402;
GPGPU-Sim PTX:    immediate post dominator      @  PC=0x1e98 (_6.ptx:266) mov.s32 %r18, 0;
GPGPU-Sim PTX:  6 (potential) branch divergence @  PC=0x1e88 (_6.ptx:261) bra.uni $Lt_2_6146;
GPGPU-Sim PTX:    immediate post dominator      @  PC=0x1e98 (_6.ptx:266) mov.s32 %r18, 0;
GPGPU-Sim PTX:  7 (potential) branch divergence @  PC=0x1f50 (_6.ptx:291) bra.uni $Lt_2_5122;
GPGPU-Sim PTX:    immediate post dominator      @  PC=0x2038 (_6.ptx:329) mov.f64 %fd73, 0d3fe0000000000000;// 0.5
GPGPU-Sim PTX:  8 (potential) branch divergence @  PC=0x2080 (_6.ptx:338) @%p6 bra $Lt_2_4866;
GPGPU-Sim PTX:    immediate post dominator      @  PC=0x2088 (_6.ptx:341) exit;
GPGPU-Sim PTX: ... end of reconvergence points for _Z14SigmoidForwardIfEviPKT_PS0_
GPGPU-Sim PTX: ... done pre-decoding instructions for '_Z14SigmoidForwardIfEviPKT_PS0_'.
GPGPU-Sim PTX: finished parsing EMBEDDED .ptx file _6.ptx
Adding _cuobjdump_6.ptx with cubin handle 6
GPGPU-Sim PTX: extracting embedded .ptx to temporary file "_ptx_JPsYS7"
Running: cat _ptx_JPsYS7 | sed 's/.version 1.5/.version 1.4/' | sed 's/, texmode_independent//' | sed 's/\(\.extern \.const\[1\] .b8 \w\+\)\[\]/\1\[1\]/' | sed 's/const\[.\]/const\[0\]/g' > _ptx2_Dx0idx
GPGPU-Sim PTX: generating ptxinfo using "$CUDA_INSTALL_PATH/bin/ptxas --gpu-name=sm_20 -v _ptx2_Dx0idx --output-file  /dev/null 2> _ptx_JPsYS7info"
GPGPU-Sim PTX: Kernel '_Z14SigmoidForwardIfEviPKT_PS0_' : regs=26, lmem=0, smem=0, cmem=60
GPGPU-Sim PTX: Kernel '_Z11ReLUForwardIfEviPKT_PS0_' : regs=10, lmem=0, smem=0, cmem=56
GPGPU-Sim PTX: Kernel '_Z12ReLUBackwardIfEviPKT_S2_PS0_' : regs=9, lmem=0, smem=0, cmem=64
GPGPU-Sim PTX: removing ptxinfo using "rm -f _ptx_JPsYS7 _ptx2_Dx0idx _ptx_JPsYS7info"
GPGPU-Sim PTX: loading globals with explicit initializers... 
GPGPU-Sim PTX: finished loading globals (0 bytes total).
GPGPU-Sim PTX: loading constants with explicit initializers...  done.
GPGPU-Sim PTX: __cudaRegisterFunction _Z11ReLUForwardIfEviPKT_PS0_ : hostFun 0x0x406080, fat_cubin_handle = 6
GPGPU-Sim PTX: __cudaRegisterFunction _Z12ReLUBackwardIfEviPKT_S2_PS0_ : hostFun 0x0x405ff0, fat_cubin_handle = 6
dev_out malloc success!
dev_in malloc success!
dev_mask malloc success!

GPGPU-Sim PTX: cudaLaunch for 0x0x405750 (mode=performance simulation) on stream 0
GPGPU-Sim PTX: pushing kernel '_Z15MaxPoolBackwardIfEviPKT_PKiiiiiiiiiiiiPS0_' to stream 0, gridDim= (6,1,1) blockDim = (512,1,1) 
kernel '_Z15MaxPoolBackwardIfEviPKT_PKiiiiiiiiiiiiPS0_' transfer to GPU hardware scheduler
GPGPU-Sim uArch: Shader 1 bind to kernel 1 '_Z15MaxPoolBackwardIfEviPKT_PKiiiiiiiiiiiiPS0_'
GPGPU-Sim uArch: CTA/core = 2, limited by: regs
GPGPU-Sim uArch: core:  1, cta: 0 initialized @(1,0)
GPGPU-Sim uArch: Shader 2 bind to kernel 1 '_Z15MaxPoolBackwardIfEviPKT_PKiiiiiiiiiiiiPS0_'
GPGPU-Sim uArch: core:  2, cta: 0 initialized @(1,0)
GPGPU-Sim uArch: Shader 3 bind to kernel 1 '_Z15MaxPoolBackwardIfEviPKT_PKiiiiiiiiiiiiPS0_'
GPGPU-Sim uArch: core:  3, cta: 0 initialized @(1,0)
GPGPU-Sim uArch: Shader 4 bind to kernel 1 '_Z15MaxPoolBackwardIfEviPKT_PKiiiiiiiiiiiiPS0_'
GPGPU-Sim uArch: core:  4, cta: 0 initialized @(1,0)
GPGPU-Sim uArch: Shader 5 bind to kernel 1 '_Z15MaxPoolBackwardIfEviPKT_PKiiiiiiiiiiiiPS0_'
GPGPU-Sim uArch: core:  5, cta: 0 initialized @(1,0)
GPGPU-Sim uArch: Shader 6 bind to kernel 1 '_Z15MaxPoolBackwardIfEviPKT_PKiiiiiiiiiiiiPS0_'
GPGPU-Sim uArch: core:  6, cta: 0 initialized @(1,0)
GPGPU-Sim uArch: cycles simulated: 500  inst.: 18432 (ipc=36.9) sim_rate=18432 (inst/sec) elapsed = 0:0:00:01 / Sun Jul 22 14:28:02 2018
GPGPU-Sim uArch: cycles simulated: 1000  inst.: 45120 (ipc=45.1) sim_rate=22560 (inst/sec) elapsed = 0:0:00:02 / Sun Jul 22 14:28:03 2018
GPGPU-Sim PTX: 100000 instructions simulated : ctaid=(2,0,0) tid=(127,0,0)
GPGPU-Sim PTX: 200000 instructions simulated : ctaid=(1,0,0) tid=(271,0,0)
GPGPU-Sim uArch: Shader 6 finished CTA #0 (3872,0), 0 CTAs running
GPGPU-Sim uArch: Shader 6 empty (release kernel 1 '_Z15MaxPoolBackwardIfEviPKT_PKiiiiiiiiiiiiPS0_').
GPGPU-Sim uArch: Shader 1 finished CTA #0 (4110,0), 0 CTAs running
GPGPU-Sim uArch: Shader 1 empty (release kernel 1 '_Z15MaxPoolBackwardIfEviPKT_PKiiiiiiiiiiiiPS0_').
GPGPU-Sim uArch: Shader 3 finished CTA #0 (4115,0), 0 CTAs running
GPGPU-Sim uArch: Shader 3 empty (release kernel 1 '_Z15MaxPoolBackwardIfEviPKT_PKiiiiiiiiiiiiPS0_').
GPGPU-Sim uArch: Shader 2 finished CTA #0 (4120,0), 0 CTAs running
GPGPU-Sim uArch: Shader 2 empty (release kernel 1 '_Z15MaxPoolBackwardIfEviPKT_PKiiiiiiiiiiiiPS0_').
GPGPU-Sim uArch: Shader 5 finished CTA #0 (4129,0), 0 CTAs running
GPGPU-Sim uArch: Shader 5 empty (release kernel 1 '_Z15MaxPoolBackwardIfEviPKT_PKiiiiiiiiiiiiPS0_').
GPGPU-Sim uArch: Shader 4 finished CTA #0 (4141,0), 0 CTAs running
GPGPU-Sim uArch: Shader 4 empty (release kernel 1 '_Z15MaxPoolBackwardIfEviPKT_PKiiiiiiiiiiiiPS0_').
GPGPU-Sim uArch: GPU detected kernel '_Z15MaxPoolBackwardIfEviPKT_PKiiiiiiiiiiiiPS0_' finished on shader 4.
kernel_name = _Z15MaxPoolBackwardIfEviPKT_PKiiiiiiiiiiiiPS0_ 
kernel_launch_uid = 1 
gpu_sim_cycle = 4142
gpu_sim_insn = 265690
gpu_ipc =      64.1453
gpu_tot_sim_cycle = 4142
gpu_tot_sim_insn = 265690
gpu_tot_ipc =      64.1453
gpu_tot_issued_cta = 0
gpu_stall_dramfull = 0
gpu_stall_icnt2sh    = 105
gpu_total_sim_rate=132845

========= Core cache stats =========
L1I_cache:
	L1I_total_cache_accesses = 5618
	L1I_total_cache_misses = 627
	L1I_total_cache_miss_rate = 0.1116
	L1I_total_cache_pending_hits = 0
	L1I_total_cache_reservation_fails = 0
L1D_cache:
	L1D_cache_core[0]: Access = 0, Miss = 0, Miss_rate = -nan, Pending_hits = 0, Reservation_fails = 0
	L1D_cache_core[1]: Access = 39, Miss = 22, Miss_rate = 0.564, Pending_hits = 17, Reservation_fails = 0
	L1D_cache_core[2]: Access = 39, Miss = 22, Miss_rate = 0.564, Pending_hits = 17, Reservation_fails = 1
	L1D_cache_core[3]: Access = 37, Miss = 22, Miss_rate = 0.595, Pending_hits = 15, Reservation_fails = 0
	L1D_cache_core[4]: Access = 39, Miss = 22, Miss_rate = 0.564, Pending_hits = 17, Reservation_fails = 0
	L1D_cache_core[5]: Access = 39, Miss = 22, Miss_rate = 0.564, Pending_hits = 17, Reservation_fails = 0
	L1D_cache_core[6]: Access = 24, Miss = 14, Miss_rate = 0.583, Pending_hits = 10, Reservation_fails = 0
	L1D_cache_core[7]: Access = 0, Miss = 0, Miss_rate = -nan, Pending_hits = 0, Reservation_fails = 0
	L1D_cache_core[8]: Access = 0, Miss = 0, Miss_rate = -nan, Pending_hits = 0, Reservation_fails = 0
	L1D_cache_core[9]: Access = 0, Miss = 0, Miss_rate = -nan, Pending_hits = 0, Reservation_fails = 0
	L1D_cache_core[10]: Access = 0, Miss = 0, Miss_rate = -nan, Pending_hits = 0, Reservation_fails = 0
	L1D_cache_core[11]: Access = 0, Miss = 0, Miss_rate = -nan, Pending_hits = 0, Reservation_fails = 0
	L1D_cache_core[12]: Access = 0, Miss = 0, Miss_rate = -nan, Pending_hits = 0, Reservation_fails = 0
	L1D_cache_core[13]: Access = 0, Miss = 0, Miss_rate = -nan, Pending_hits = 0, Reservation_fails = 0
	L1D_cache_core[14]: Access = 0, Miss = 0, Miss_rate = -nan, Pending_hits = 0, Reservation_fails = 0
	L1D_total_cache_accesses = 217
	L1D_total_cache_misses = 124
	L1D_total_cache_miss_rate = 0.5714
	L1D_total_cache_pending_hits = 93
	L1D_total_cache_reservation_fails = 1
	L1D_cache_data_port_util = 0.000
	L1D_cache_fill_port_util = 0.001
L1C_cache:
	L1C_total_cache_accesses = 1446
	L1C_total_cache_misses = 186
	L1C_total_cache_miss_rate = 0.1286
	L1C_total_cache_pending_hits = 0
	L1C_total_cache_reservation_fails = 0
L1T_cache:
	L1T_total_cache_accesses = 0
	L1T_total_cache_misses = 0
	L1T_total_cache_pending_hits = 0
	L1T_total_cache_reservation_fails = 0

Total_core_cache_stats:
	Total_core_cache_stats_breakdown[GLOBAL_ACC_R][HIT_RESERVED] = 93
	Total_core_cache_stats_breakdown[GLOBAL_ACC_R][MISS] = 34
	Total_core_cache_stats_breakdown[CONST_ACC_R][HIT] = 1260
	Total_core_cache_stats_breakdown[CONST_ACC_R][MISS] = 186
	Total_core_cache_stats_breakdown[GLOBAL_ACC_W][MISS] = 90
	Total_core_cache_stats_breakdown[GLOBAL_ACC_W][RESERVATION_FAIL] = 1
	Total_core_cache_stats_breakdown[INST_ACC_R][HIT] = 4991
	Total_core_cache_stats_breakdown[INST_ACC_R][MISS] = 627
Shader 0 warp_id issue ditsribution:
warp_id:

distro:

gpgpu_n_tot_thrd_icount = 292960
gpgpu_n_tot_w_icount = 9155
gpgpu_n_stall_shd_mem = 33
gpgpu_n_mem_read_local = 0
gpgpu_n_mem_write_local = 0
gpgpu_n_mem_read_global = 34
gpgpu_n_mem_write_global = 90
gpgpu_n_mem_texture = 0
gpgpu_n_mem_const = 12
gpgpu_n_load_insn  = 2885
gpgpu_n_store_insn = 2880
gpgpu_n_shmem_insn = 0
gpgpu_n_tex_insn = 0
gpgpu_n_const_mem_insn = 0
gpgpu_n_param_mem_insn = 46032
gpgpu_n_shmem_bkconflict = 0
gpgpu_n_cache_bkconflict = 0
gpgpu_n_intrawarp_mshr_merge = 0
gpgpu_n_cmem_portconflict = 0
gpgpu_stall_shd_mem[c_mem][bk_conf] = 0
gpgpu_stall_shd_mem[c_mem][mshr_rc] = 0
gpgpu_stall_shd_mem[c_mem][icnt_rc] = 0
gpgpu_stall_shd_mem[c_mem][data_port_stall] = 0
gpgpu_stall_shd_mem[t_mem][mshr_rc] = 0
gpgpu_stall_shd_mem[t_mem][icnt_rc] = 0
gpgpu_stall_shd_mem[t_mem][data_port_stall] = 0
gpgpu_stall_shd_mem[s_mem][bk_conf] = 0
gpgpu_stall_shd_mem[gl_mem][bk_conf] = 0
gpgpu_stall_shd_mem[gl_mem][coal_stall] = 33
gpgpu_stall_shd_mem[gl_mem][data_port_stall] = 0
gpgpu_stall_shd_mem[g_mem_ld][mshr_rc] = 0
gpgpu_stall_shd_mem[g_mem_ld][icnt_rc] = 0
gpgpu_stall_shd_mem[g_mem_ld][wb_icnt_rc] = 0
gpgpu_stall_shd_mem[g_mem_ld][wb_rsrv_fail] = 0
gpgpu_stall_shd_mem[g_mem_st][mshr_rc] = 0
gpgpu_stall_shd_mem[g_mem_st][icnt_rc] = 0
gpgpu_stall_shd_mem[g_mem_st][wb_icnt_rc] = 0
gpgpu_stall_shd_mem[g_mem_st][wb_rsrv_fail] = 0
gpgpu_stall_shd_mem[l_mem_ld][mshr_rc] = 0
gpgpu_stall_shd_mem[l_mem_ld][icnt_rc] = 0
gpgpu_stall_shd_mem[l_mem_ld][wb_icnt_rc] = 0
gpgpu_stall_shd_mem[l_mem_ld][wb_rsrv_fail] = 0
gpgpu_stall_shd_mem[l_mem_st][mshr_rc] = 0
gpgpu_stall_shd_mem[l_mem_st][icnt_rc] = 0
gpgpu_stall_shd_mem[l_mem_ld][wb_icnt_rc] = 0
gpgpu_stall_shd_mem[l_mem_ld][wb_rsrv_fail] = 0
gpu_reg_bank_conflict_stalls = 0
Warp Occupancy Distribution:
Stall:657	W0_Idle:18477	W0_Scoreboard:20715	W1:15	W2:60	W3:0	W4:30	W5:0	W6:0	W7:0	W8:0	W9:0	W10:0	W11:0	W12:0	W13:0	W14:0	W15:0	W16:25	W17:0	W18:0	W19:0	W20:0	W21:0	W22:0	W23:0	W24:0	W25:0	W26:0	W27:0	W28:150	W29:0	W30:300	W31:0	W32:8575
traffic_breakdown_coretomem[CONST_ACC_R] = 96 {8:12,}
traffic_breakdown_coretomem[GLOBAL_ACC_R] = 272 {8:34,}
traffic_breakdown_coretomem[GLOBAL_ACC_W] = 12240 {136:90,}
traffic_breakdown_coretomem[INST_ACC_R] = 336 {8:42,}
traffic_breakdown_memtocore[CONST_ACC_R] = 864 {72:12,}
traffic_breakdown_memtocore[GLOBAL_ACC_R] = 4624 {136:34,}
traffic_breakdown_memtocore[GLOBAL_ACC_W] = 720 {8:90,}
traffic_breakdown_memtocore[INST_ACC_R] = 5712 {136:42,}
maxmrqlatency = 117 
maxdqlatency = 0 
maxmflatency = 401 
averagemflatency = 263 
max_icnt2mem_latency = 82 
max_icnt2sh_latency = 4141 
mrq_lat_table:70 	13 	6 	29 	41 	40 	18 	0 	0 	0 	0 	0 	0 	0 	0 	0 	0 	0 	0 	0 	0 	0 	0 	0 	0 	0 	0 	0 	0 	0 	0 	0 	
dq_lat_table:0 	0 	0 	0 	0 	0 	0 	0 	0 	0 	0 	0 	0 	0 	0 	0 	0 	0 	0 	0 	0 	0 	0 	0 	0 	0 	0 	0 	0 	0 	0 	0 	
mf_lat_table:0 	0 	0 	0 	0 	0 	0 	11 	125 	0 	0 	0 	0 	0 	0 	0 	0 	0 	0 	0 	0 	0 	0 	0 	0 	0 	0 	0 	0 	0 	0 	0 	
icnt2mem_lat_table:0 	0 	0 	99 	22 	40 	17 	0 	0 	0 	0 	0 	0 	0 	0 	0 	0 	0 	0 	0 	0 	0 	0 	0 	
icnt2sh_lat_table:0 	0 	0 	29 	17 	0 	0 	0 	0 	0 	0 	78 	12 	0 	0 	0 	0 	0 	0 	0 	0 	0 	0 	0 	
mf_lat_pw_table:0 	0 	0 	0 	0 	0 	0 	1 	2 	0 	0 	0 	0 	0 	0 	0 	0 	0 	0 	0 	0 	0 	0 	0 	0 	0 	0 	0 	0 	0 	0 	0 	
maximum concurrent accesses to same row:
dram[0]:         0         0         0         0         2         2         0         0         0         0         0         0         0         0         0         0 
dram[1]:         0         0         0         0         2         2         0         0         0         0         0         0         0         0         0         0 
dram[2]:         0         0         0         0         2         2         0         0         0         0         0         0         0         0         0         0 
dram[3]:         0         0         0         0         2         2         0         0         0         0         0         0         0         0         0         0 
dram[4]:         0         0         0         0         2         2         0         0         0         0         0         0         0         0         0         0 
dram[5]:         0         0         0         0         2         2         0         0         0         0         0         0         0         0         0         0 
maximum service time to same row:
dram[0]:         0         0         0         0      3438      3454      3800      3935         0         0         0         0         0         0         0         0 
dram[1]:         0         0         0         0      3451      3457      3812      3975         0         0         0         0         0         0         0         0 
dram[2]:         0       232         0         0      3415      3426      3947      3993         0         0         0         0         0         0         0         0 
dram[3]:         0      1484         0         0      3422      3438      3932      3785         0         0         0         0         0         0         0         0 
dram[4]:         0      2640         0         0      3449      3438      3971      3818         0         0         0         0         0         0         0         0 
dram[5]:         0       856         0         0      3454      3434      3922      3829         0         0         0         0         0         0         0         0 
average row accesses per activate:
dram[0]:       inf      -nan      -nan      -nan  3.500000  5.000000 12.000000  8.000000      -nan      -nan      -nan      -nan      -nan      -nan      -nan      -nan 
dram[1]:      -nan      -nan      -nan      -nan  3.000000  5.000000 12.000000  8.000000      -nan      -nan      -nan      -nan      -nan      -nan      -nan      -nan 
dram[2]:      -nan  2.000000      -nan      -nan  3.500000  5.500000  8.000000  8.000000      -nan      -nan      -nan      -nan      -nan      -nan      -nan      -nan 
dram[3]:      -nan  2.000000      -nan      -nan  3.000000  5.000000  8.000000  8.000000      -nan      -nan      -nan      -nan      -nan      -nan      -nan      -nan 
dram[4]:      -nan  2.000000      -nan      -nan  3.000000  5.500000  8.000000  8.000000      -nan      -nan      -nan      -nan      -nan      -nan      -nan      -nan 
dram[5]:      -nan  1.000000      -nan      -nan  5.500000  5.000000  8.000000  8.000000      -nan      -nan      -nan      -nan      -nan      -nan      -nan      -nan 
average row locality = 217/40 = 5.425000
number of total memory accesses made:
dram[0]:         0         0         0         0         0         0         0         0         0         0         0         0         0         0         0         0 
dram[1]:         0         0         0         0         0         0         0         0         0         0         0         0         0         0         0         0 
dram[2]:         0         0         0         0         0         0         0         0         0         0         0         0         0         0         0         0 
dram[3]:         0         0         0         0         0         0         0         0         0         0         0         0         0         0         0         0 
dram[4]:         0         0         0         0         0         0         0         0         0         0         0         0         0         0         0         0 
dram[5]:         0         0         0         0         0         0         0         0         0         0         0         0         0         0         0         0 
total accesses: 0
min_bank_accesses = 0!
min_chip_accesses = 0!
number of total read accesses:
dram[0]:         1         0         0         0         5         6         6         4         0         0         0         0         0         0         0         0 
dram[1]:         0         0         0         0         4         6         6         4         0         0         0         0         0         0         0         0 
dram[2]:         0         2         0         0         5         7         4         4         0         0         0         0         0         0         0         0 
dram[3]:         0         2         0         0         4         6         4         4         0         0         0         0         0         0         0         0 
dram[4]:         0         2         0         0         4         7         4         4         0         0         0         0         0         0         0         0 
dram[5]:         0         1         0         0         7         6         4         4         0         0         0         0         0         0         0         0 
total reads: 127
min_bank_accesses = 0!
chip skew: 22/20 = 1.10
number of total write accesses:
dram[0]:         0         0         0         0         2         4         6         4         0         0         0         0         0         0         0         0 
dram[1]:         0         0         0         0         2         4         6         4         0         0         0         0         0         0         0         0 
dram[2]:         0         0         0         0         2         4         4         4         0         0         0         0         0         0         0         0 
dram[3]:         0         0         0         0         2         4         4         4         0         0         0         0         0         0         0         0 
dram[4]:         0         0         0         0         2         4         4         4         0         0         0         0         0         0         0         0 
dram[5]:         0         0         0         0         4         4         4         4         0         0         0         0         0         0         0         0 
total reads: 90
min_bank_accesses = 0!
chip skew: 16/14 = 1.14
average mf latency per bank:
dram[0]:       2407    none      none      none         242       201       160       162    none      none      none      none      none      none      none      none  
dram[1]:     none      none      none      none         199       182       155       171    none      none      none      none      none      none      none      none  
dram[2]:     none           0    none      none         191       201       161       163    none      none      none      none      none      none      none      none  
dram[3]:     none           0    none      none         189       182       153       145    none      none      none      none      none      none      none      none  
dram[4]:     none           0    none      none         240       206       176       141    none      none      none      none      none      none      none      none  
dram[5]:     none           0    none      none         183       176       138       156    none      none      none      none      none      none      none      none  
maximum mf latency per bank:
dram[0]:        269         0         0         0       321       340       401       374         0         0         0         0         0         0         0         0
dram[1]:          0         0         0         0       344       377       390       397         0         0         0         0         0         0         0         0
dram[2]:          0         0         0         0       277       320       360       358         0         0         0         0         0         0         0         0
dram[3]:          0         0         0         0       314       391       361       336         0         0         0         0         0         0         0         0
dram[4]:          0         0         0         0       328       344       397       309         0         0         0         0         0         0         0         0
dram[5]:          0         0         0         0       333       356       290       364         0         0         0         0         0         0         0         0

Number of Memory Banks Accessed per Memory Operation per Warp (from 0):
0	0	0	0	0	0	0	0	0	0	0	0	0	0	0	0	0	0	0	0	0	0	0	0	0	0	0	0	0	0	0	0	0	0	0	0	0	0	0	0	0	0	0	0	0	0	0	0	0	0	0	0	0	0	0	0	0	0	0	0	0	0	0	0	0	0	0	0	0	0	0	0	0	0	0	0	0	0	0	0	0	0	0	0	0	0	0	0	0	0	0	0	0	0	0	0	
Average # of Memory Banks Accessed per Memory Operation per Warp=-nan

position of mrq chosen
0	0	0	0	0	0	0	0	0	0	0	0	0	0	0	0	

average position of mrq chosen = -nan
Memory Partition 0: 
Cache L2_bank_000:
MSHR contents

Cache L2_bank_001:
MSHR contents

In Dram Latency Queue (total = 0): 
DRAM[0]: 16 bks, busW=4 BL=8 CL=12, tRRD=2 tCCD=6, tRCD=12 tRAS=28 tRP=12 tRC=40
n_cmd=5467 n_nop=5382 n_act=7 n_pre=2 n_req=38 n_rd=44 n_write=32 bw_util=0.0278
n_activity=498 dram_eff=0.3052
bk0: 2a 5451i bk1: 0a 5468i bk2: 0a 5470i bk3: 0a 5470i bk4: 10a 5334i bk5: 12a 5286i bk6: 12a 5210i bk7: 8a 5248i bk8: 0a 5466i bk9: 0a 5466i bk10: 0a 5466i bk11: 0a 5467i bk12: 0a 5467i bk13: 0a 5467i bk14: 0a 5467i bk15: 0a 5467i 
dram_util_bins: 0 0 0 0 0 0 0 0 0 0
dram_eff_bins: 0 0 0 0 0 0 0 0 0 0
mrqq: max=9 avg=0.235778
Memory Partition 1: 
Cache L2_bank_002:
MSHR contents

Cache L2_bank_003:
MSHR contents
MSHR: tag=0x80003b80, atomic=0 1 entries : 0x7f38f16b8ff0 :  mf: uid=  7366, sid02:w13, part=1, addr=0x80003b80, load , size=128, unknown  status = IN_PARTITION_DRAM (4136), 
MSHR: tag=0x80005380, atomic=0 1 entries : 0x7f38f17518d0 :  mf: uid=  7355, sid05:w13, part=1, addr=0x80005380, load , size=128, unknown  status = IN_PARTITION_L2_FILL_QUEUE (4141), 

In Dram Latency Queue (total = 0): 
DRAM[1]: 16 bks, busW=4 BL=8 CL=12, tRRD=2 tCCD=6, tRCD=12 tRAS=28 tRP=12 tRC=40
n_cmd=5467 n_nop=5387 n_act=6 n_pre=2 n_req=36 n_rd=40 n_write=32 bw_util=0.02634
n_activity=392 dram_eff=0.3673
bk0: 0a 5468i bk1: 0a 5470i bk2: 0a 5470i bk3: 0a 5470i bk4: 8a 5346i bk5: 12a 5226i bk6: 12a 5229i bk7: 8a 5257i bk8: 0a 5462i bk9: 0a 5464i bk10: 0a 5465i bk11: 0a 5466i bk12: 0a 5467i bk13: 0a 5467i bk14: 0a 5468i bk15: 0a 5468i 
dram_util_bins: 0 0 0 0 0 0 0 0 0 0
dram_eff_bins: 0 0 0 0 0 0 0 0 0 0
mrqq: max=11 avg=0.210902
Memory Partition 2: 
Cache L2_bank_004:
MSHR contents

Cache L2_bank_005:
MSHR contents
MSHR: tag=0x80004800, atomic=0 1 entries : 0x7f38f16c42e0 :  mf: uid=  7369, sid04:w06, part=2, addr=0x80004800, load , size=128, unknown  status = IN_PARTITION_DRAM (4138), 

In Dram Latency Queue (total = 0): 
DRAM[2]: 16 bks, busW=4 BL=8 CL=12, tRRD=2 tCCD=6, tRCD=12 tRAS=28 tRP=12 tRC=40
n_cmd=5467 n_nop=5386 n_act=7 n_pre=2 n_req=36 n_rd=44 n_write=28 bw_util=0.02634
n_activity=464 dram_eff=0.3103
bk0: 0a 5467i bk1: 4a 5447i bk2: 0a 5467i bk3: 0a 5470i bk4: 10a 5336i bk5: 14a 5303i bk6: 8a 5246i bk7: 8a 5272i bk8: 0a 5465i bk9: 0a 5466i bk10: 0a 5466i bk11: 0a 5466i bk12: 0a 5466i bk13: 0a 5466i bk14: 0a 5467i bk15: 0a 5467i 
dram_util_bins: 0 0 0 0 0 0 0 0 0 0
dram_eff_bins: 0 0 0 0 0 0 0 0 0 0
mrqq: max=6 avg=0.141028
Memory Partition 3: 
Cache L2_bank_006:
MSHR contents

Cache L2_bank_007:
MSHR contents

In Dram Latency Queue (total = 0): 
DRAM[3]: 16 bks, busW=4 BL=8 CL=12, tRRD=2 tCCD=6, tRCD=12 tRAS=28 tRP=12 tRC=40
n_cmd=5467 n_nop=5390 n_act=7 n_pre=2 n_req=34 n_rd=40 n_write=28 bw_util=0.02488
n_activity=415 dram_eff=0.3277
bk0: 0a 5469i bk1: 4a 5449i bk2: 0a 5468i bk3: 0a 5470i bk4: 8a 5334i bk5: 12a 5230i bk6: 8a 5266i bk7: 8a 5297i bk8: 0a 5465i bk9: 0a 5465i bk10: 0a 5465i bk11: 0a 5466i bk12: 0a 5467i bk13: 0a 5467i bk14: 0a 5467i bk15: 0a 5468i 
dram_util_bins: 0 0 0 0 0 0 0 0 0 0
dram_eff_bins: 0 0 0 0 0 0 0 0 0 0
mrqq: max=10 avg=0.192427
Memory Partition 4: 
Cache L2_bank_008:
MSHR contents

Cache L2_bank_009:
MSHR contents

In Dram Latency Queue (total = 0): 
DRAM[4]: 16 bks, busW=4 BL=8 CL=12, tRRD=2 tCCD=6, tRCD=12 tRAS=28 tRP=12 tRC=40
n_cmd=5467 n_nop=5388 n_act=7 n_pre=2 n_req=35 n_rd=42 n_write=28 bw_util=0.02561
n_activity=475 dram_eff=0.2947
bk0: 0a 5467i bk1: 4a 5448i bk2: 0a 5467i bk3: 0a 5470i bk4: 8a 5344i bk5: 14a 5254i bk6: 8a 5283i bk7: 8a 5322i bk8: 0a 5464i bk9: 0a 5466i bk10: 0a 5466i bk11: 0a 5467i bk12: 0a 5467i bk13: 0a 5467i bk14: 0a 5467i bk15: 0a 5467i 
dram_util_bins: 0 0 0 0 0 0 0 0 0 0
dram_eff_bins: 0 0 0 0 0 0 0 0 0 0
mrqq: max=10 avg=0.187306
Memory Partition 5: 
Cache L2_bank_010:
MSHR contents

Cache L2_bank_011:
MSHR contents

In Dram Latency Queue (total = 0): 
DRAM[5]: 16 bks, busW=4 BL=8 CL=12, tRRD=2 tCCD=6, tRCD=12 tRAS=28 tRP=12 tRC=40
n_cmd=5467 n_nop=5382 n_act=7 n_pre=2 n_req=38 n_rd=44 n_write=32 bw_util=0.0278
n_activity=530 dram_eff=0.2868
bk0: 0a 5468i bk1: 2a 5453i bk2: 0a 5469i bk3: 0a 5472i bk4: 14a 5271i bk5: 12a 5251i bk6: 8a 5318i bk7: 8a 5302i bk8: 0a 5463i bk9: 0a 5464i bk10: 0a 5465i bk11: 0a 5466i bk12: 0a 5466i bk13: 0a 5466i bk14: 0a 5467i bk15: 0a 5467i 
dram_util_bins: 0 0 0 0 0 0 0 0 0 0
dram_eff_bins: 0 0 0 0 0 0 0 0 0 0
mrqq: max=6 avg=0.12548

========= L2 cache stats =========
L2_cache_bank[0]: Access = 24, Miss = 12, Miss_rate = 0.500, Pending_hits = 4, Reservation_fails = 100
L2_cache_bank[1]: Access = 11, Miss = 10, Miss_rate = 0.909, Pending_hits = 1, Reservation_fails = 0
L2_cache_bank[2]: Access = 10, Miss = 10, Miss_rate = 1.000, Pending_hits = 0, Reservation_fails = 0
L2_cache_bank[3]: Access = 10, Miss = 10, Miss_rate = 1.000, Pending_hits = 0, Reservation_fails = 0
L2_cache_bank[4]: Access = 9, Miss = 9, Miss_rate = 1.000, Pending_hits = 0, Reservation_fails = 0
L2_cache_bank[5]: Access = 24, Miss = 13, Miss_rate = 0.542, Pending_hits = 7, Reservation_fails = 215
L2_cache_bank[6]: Access = 8, Miss = 8, Miss_rate = 1.000, Pending_hits = 0, Reservation_fails = 0
L2_cache_bank[7]: Access = 22, Miss = 12, Miss_rate = 0.545, Pending_hits = 6, Reservation_fails = 187
L2_cache_bank[8]: Access = 9, Miss = 8, Miss_rate = 0.889, Pending_hits = 1, Reservation_fails = 0
L2_cache_bank[9]: Access = 24, Miss = 13, Miss_rate = 0.542, Pending_hits = 7, Reservation_fails = 188
L2_cache_bank[10]: Access = 11, Miss = 11, Miss_rate = 1.000, Pending_hits = 0, Reservation_fails = 0
L2_cache_bank[11]: Access = 16, Miss = 11, Miss_rate = 0.688, Pending_hits = 0, Reservation_fails = 0
L2_total_cache_accesses = 178
L2_total_cache_misses = 127
L2_total_cache_miss_rate = 0.7135
L2_total_cache_pending_hits = 26
L2_total_cache_reservation_fails = 690
L2_total_cache_breakdown:
	L2_cache_stats_breakdown[GLOBAL_ACC_R][HIT_RESERVED] = 5
	L2_cache_stats_breakdown[GLOBAL_ACC_R][MISS] = 29
	L2_cache_stats_breakdown[CONST_ACC_R][HIT] = 8
	L2_cache_stats_breakdown[CONST_ACC_R][HIT_RESERVED] = 3
	L2_cache_stats_breakdown[CONST_ACC_R][MISS] = 1
	L2_cache_stats_breakdown[CONST_ACC_R][RESERVATION_FAIL] = 100
	L2_cache_stats_breakdown[GLOBAL_ACC_W][MISS] = 90
	L2_cache_stats_breakdown[INST_ACC_R][HIT] = 17
	L2_cache_stats_breakdown[INST_ACC_R][HIT_RESERVED] = 18
	L2_cache_stats_breakdown[INST_ACC_R][MISS] = 7
	L2_cache_stats_breakdown[INST_ACC_R][RESERVATION_FAIL] = 590
L2_cache_data_port_util = 0.002
L2_cache_fill_port_util = 0.010

icnt_total_pkts_mem_to_simt=506
icnt_total_pkts_simt_to_mem=538
LD_mem_lat_dist  0 0 0 0 0 0 0 0 0 0 0 0 0 0 0 0 0 0 0 0 0 0 0 0 0 0 0
ST_mem_lat_dist  0 0 0 0 0 0 0 0 0 0 0 0 0 0 0 0 0 0 0 0 0 0 0 0 0 0 0
----------------------------Interconnect-DETAILS--------------------------------
Class 0:
Packet latency average = 11.632
	minimum = 6
	maximum = 32
Network latency average = 10.0084
	minimum = 6
	maximum = 25
Slowest packet = 141
Flit latency average = 9.02969
	minimum = 6
	maximum = 21
Slowest flit = 379
Fragmentation average = 0
	minimum = 0
	maximum = 0
Injected packet rate average = 0.00318329
	minimum = 0 (at node 0)
	maximum = 0.00748431 (at node 1)
Accepted packet rate average = 0.00318329
	minimum = 0 (at node 0)
	maximum = 0.00748431 (at node 1)
Injected flit rate average = 0.00933526
	minimum = 0 (at node 0)
	maximum = 0.0229358 (at node 1)
Accepted flit rate average= 0.00933526
	minimum = 0 (at node 0)
	maximum = 0.0210043 (at node 1)
Injected packet length average = 2.93258
Accepted packet length average = 2.93258
Total in-flight flits = 0 (0 measured)
====== Overall Traffic Statistics ======
====== Traffic class 0 ======
Packet latency average = 11.632 (1 samples)
	minimum = 6 (1 samples)
	maximum = 32 (1 samples)
Network latency average = 10.0084 (1 samples)
	minimum = 6 (1 samples)
	maximum = 25 (1 samples)
Flit latency average = 9.02969 (1 samples)
	minimum = 6 (1 samples)
	maximum = 21 (1 samples)
Fragmentation average = 0 (1 samples)
	minimum = 0 (1 samples)
	maximum = 0 (1 samples)
Injected packet rate average = 0.00318329 (1 samples)
	minimum = 0 (1 samples)
	maximum = 0.00748431 (1 samples)
Accepted packet rate average = 0.00318329 (1 samples)
	minimum = 0 (1 samples)
	maximum = 0.00748431 (1 samples)
Injected flit rate average = 0.00933526 (1 samples)
	minimum = 0 (1 samples)
	maximum = 0.0229358 (1 samples)
Accepted flit rate average = 0.00933526 (1 samples)
	minimum = 0 (1 samples)
	maximum = 0.0210043 (1 samples)
Injected packet size average = 2.93258 (1 samples)
Accepted packet size average = 2.93258 (1 samples)
Hops average = 1 (1 samples)
----------------------------END-of-Interconnect-DETAILS-------------------------


gpgpu_simulation_time = 0 days, 0 hrs, 0 min, 2 sec (2 sec)
gpgpu_simulation_rate = 132845 (inst/sec)
gpgpu_simulation_rate = 2071 (cycle/sec)
