

        *** GPGPU-Sim Simulator Version 3.2.2  [build 0] ***


GPGPU-Sim PTX: simulation mode 0 (can change with PTX_SIM_MODE_FUNC environment variable:
               1=functional simulation only, 0=detailed performance simulator)
GPGPU-Sim: Configuration options:

-network_mode                           1 # Interconnection network mode
-inter_config_file   config_fermi_islip.icnt_TSV # Interconnection network config file
-gpgpu_ptx_use_cuobjdump                    1 # Use cuobjdump to extract ptx and sass from binaries
-gpgpu_experimental_lib_support                    0 # Try to extract code from cuda libraries [Broken because of unknown cudaGetExportTable]
-gpgpu_ptx_convert_to_ptxplus                    0 # Convert SASS (native ISA) to ptxplus and run ptxplus
-gpgpu_ptx_force_max_capability                   20 # Force maximum compute capability
-gpgpu_ptx_inst_debug_to_file                    0 # Dump executed instructions' debug information to file
-gpgpu_ptx_inst_debug_file       inst_debug.txt # Executed instructions' debug output file
-gpgpu_ptx_inst_debug_thread_uid                    1 # Thread UID for executed instructions' debug output
-gpgpu_simd_model                       1 # 1 = post-dominator
-gpgpu_shader_core_pipeline              1536:32 # shader core pipeline config, i.e., {<nthread>:<warpsize>}
-gpgpu_tex_cache:l1  4:128:24,L:R:m:N:L,F:128:4,128:2 # per-shader L1 texture cache  (READ-ONLY) config  {<nsets>:<bsize>:<assoc>,<rep>:<wr>:<alloc>:<wr_alloc>,<mshr>:<N>:<merge>,<mq>:<rf>}
-gpgpu_const_cache:l1 64:64:2,L:R:f:N:L,A:2:32,4 # per-shader L1 constant memory cache  (READ-ONLY) config  {<nsets>:<bsize>:<assoc>,<rep>:<wr>:<alloc>:<wr_alloc>,<mshr>:<N>:<merge>,<mq>} 
-gpgpu_cache:il1     4:128:4,L:R:f:N:L,A:2:32,4 # shader L1 instruction cache config  {<nsets>:<bsize>:<assoc>,<rep>:<wr>:<alloc>:<wr_alloc>,<mshr>:<N>:<merge>,<mq>} 
-gpgpu_cache:dl1     32:128:4,L:L:m:N:H,A:32:8,8 # per-shader L1 data cache config  {<nsets>:<bsize>:<assoc>,<rep>:<wr>:<alloc>:<wr_alloc>,<mshr>:<N>:<merge>,<mq> | none}
-gpgpu_cache:dl1PrefL1                 none # per-shader L1 data cache config  {<nsets>:<bsize>:<assoc>,<rep>:<wr>:<alloc>:<wr_alloc>,<mshr>:<N>:<merge>,<mq> | none}
-gpgpu_cache:dl1PreShared                 none # per-shader L1 data cache config  {<nsets>:<bsize>:<assoc>,<rep>:<wr>:<alloc>:<wr_alloc>,<mshr>:<N>:<merge>,<mq> | none}
-gmem_skip_L1D                          0 # global memory access skip L1D cache (implements -Xptxas -dlcm=cg, default=no skip)
-gpgpu_perfect_mem                      0 # enable perfect memory mode (no cache miss)
-n_regfile_gating_group                    4 # group of lanes that should be read/written together)
-gpgpu_clock_gated_reg_file                    0 # enable clock gated reg file for power calculations
-gpgpu_clock_gated_lanes                    0 # enable clock gated lanes for power calculations
-gpgpu_shader_registers                32768 # Number of registers per shader core. Limits number of concurrent CTAs. (default 8192)
-gpgpu_shader_cta                       8 # Maximum number of concurrent CTAs in shader (default 8)
-gpgpu_num_cta_barriers                   16 # Maximum number of named barriers per CTA (default 16)
-gpgpu_n_clusters                      15 # number of processing clusters
-gpgpu_n_cores_per_cluster                    1 # number of simd cores per cluster
-gpgpu_n_cluster_ejection_buffer_size                    8 # number of packets in ejection buffer
-gpgpu_n_ldst_response_buffer_size                    2 # number of response packets in ld/st unit ejection buffer
-gpgpu_shmem_size                   16384 # Size of shared memory per shader core (default 16kB)
-gpgpu_shmem_size                   49152 # Size of shared memory per shader core (default 16kB)
-gpgpu_shmem_size_PrefL1                16384 # Size of shared memory per shader core (default 16kB)
-gpgpu_shmem_size_PrefShared                16384 # Size of shared memory per shader core (default 16kB)
-gpgpu_shmem_num_banks                   32 # Number of banks in the shared memory in each shader core (default 16)
-gpgpu_shmem_limited_broadcast                    0 # Limit shared memory to do one broadcast per cycle (default on)
-gpgpu_shmem_warp_parts                    1 # Number of portions a warp is divided into for shared memory bank conflict check 
-gpgpu_warpdistro_shader                   -1 # Specify which shader core to collect the warp size distribution from
-gpgpu_warp_issue_shader                    0 # Specify which shader core to collect the warp issue distribution from
-gpgpu_local_mem_map                    1 # Mapping from local memory space address to simulated GPU physical address space (default = enabled)
-gpgpu_num_reg_banks                   16 # Number of register banks (default = 8)
-gpgpu_reg_bank_use_warp_id                    0 # Use warp ID in mapping registers to banks (default = off)
-gpgpu_operand_collector_num_units_sp                    6 # number of collector units (default = 4)
-gpgpu_operand_collector_num_units_sfu                    8 # number of collector units (default = 4)
-gpgpu_operand_collector_num_units_mem                    2 # number of collector units (default = 2)
-gpgpu_operand_collector_num_units_gen                    0 # number of collector units (default = 0)
-gpgpu_operand_collector_num_in_ports_sp                    2 # number of collector unit in ports (default = 1)
-gpgpu_operand_collector_num_in_ports_sfu                    1 # number of collector unit in ports (default = 1)
-gpgpu_operand_collector_num_in_ports_mem                    1 # number of collector unit in ports (default = 1)
-gpgpu_operand_collector_num_in_ports_gen                    0 # number of collector unit in ports (default = 0)
-gpgpu_operand_collector_num_out_ports_sp                    2 # number of collector unit in ports (default = 1)
-gpgpu_operand_collector_num_out_ports_sfu                    1 # number of collector unit in ports (default = 1)
-gpgpu_operand_collector_num_out_ports_mem                    1 # number of collector unit in ports (default = 1)
-gpgpu_operand_collector_num_out_ports_gen                    0 # number of collector unit in ports (default = 0)
-gpgpu_coalesce_arch                   13 # Coalescing arch (default = 13, anything else is off for now)
-gpgpu_num_sched_per_core                    2 # Number of warp schedulers per core
-gpgpu_max_insn_issue_per_warp                    1 # Max number of instructions that can be issued per warp in one cycle by scheduler
-gpgpu_simt_core_sim_order                    1 # Select the simulation order of cores in a cluster (0=Fix, 1=Round-Robin)
-gpgpu_pipeline_widths        2,1,1,2,1,1,2 # Pipeline widths ID_OC_SP,ID_OC_SFU,ID_OC_MEM,OC_EX_SP,OC_EX_SFU,OC_EX_MEM,EX_WB
-gpgpu_num_sp_units                     2 # Number of SP units (default=1)
-gpgpu_num_sfu_units                    1 # Number of SF units (default=1)
-gpgpu_num_mem_units                    1 # Number if ldst units (default=1) WARNING: not hooked up to anything
-gpgpu_scheduler                      gto # Scheduler configuration: < lrr | gto | two_level_active > If two_level_active:<num_active_warps>:<inner_prioritization>:<outer_prioritization>For complete list of prioritization values see shader.h enum scheduler_prioritization_typeDefault: gto
-gpgpu_dram_scheduler                    1 # 0 = fifo, 1 = FR-FCFS (defaul)
-gpgpu_dram_partition_queues              8:8:8:8 # i2$:$2d:d2$:$2i
-l2_ideal                               0 # Use a ideal L2 cache that always hit
-gpgpu_cache:dl2     64:128:8,L:B:m:W:L,A:32:4,4:0,32 # unified banked L2 data cache config  {<nsets>:<bsize>:<assoc>,<rep>:<wr>:<alloc>:<wr_alloc>,<mshr>:<N>:<merge>,<mq>}
-gpgpu_cache:dl2_texture_only                    0 # L2 cache used for texture only
-gpgpu_n_mem                           16 # number of memory modules (e.g. memory controllers) in gpu
-gpgpu_n_sub_partition_per_mchannel                    1 # number of memory subpartition in each memory module
-gpgpu_n_mem_per_ctrlr                    2 # number of memory chips per memory controller
-gpgpu_memlatency_stat                   14 # track and display latency statistics 0x2 enables MC, 0x4 enables queue logs
-gpgpu_frfcfs_dram_sched_queue_size                   16 # 0 = unlimited (default); # entries per chip
-gpgpu_dram_return_queue_size                  116 # 0 = unlimited (default); # entries per chip
-gpgpu_dram_buswidth                    4 # default = 4 bytes (8 bytes per cycle at DDR)
-gpgpu_dram_burst_length                    8 # Burst length of each DRAM request (default = 4 data bus cycle)
-dram_data_command_freq_ratio                    4 # Frequency ratio between DRAM data bus and command bus (default = 2 times, i.e. DDR)
-gpgpu_dram_timing_opt nbk=16:CCD=2:RRD=6:RCD=6:RAS=2:RP=1:RC=1: CL=5:WL=4:CDLR=5:WR=20:nbkgrp=4:CCDL=3:RTPL=2 # DRAM timing parameters = {nbk:tCCD:tRRD:tRCD:tRAS:tRP:tRC:CL:WL:tCDLR:tWR:nbkgrp:tCCDL:tRTPL}
-rop_latency                          120 # ROP queue latency (default 85)
-dram_latency                          50 # DRAM latency (default 30)
-gpgpu_mem_addr_mapping dramid@8;00000000.00000000.00000000.00000000.0000RRRR.RRRRRRRR.BBBCCCCB.CCSSSSSS # mapping memory address to dram model {dramid@<start bit>;<memory address map>}
-gpgpu_mem_addr_test                    0 # run sweep test to check address mapping for aliased address
-gpgpu_mem_address_mask                    1 # 0 = old addressing mask, 1 = new addressing mask, 2 = new add. mask + flipped bank sel and chip sel bits
-gpuwattch_xml_file  gpuwattch_gtx480.xml_TSV # GPUWattch XML file
-power_simulation_enabled                    1 # Turn on power simulator (1=On, 0=Off)
-power_per_cycle_dump                    0 # Dump detailed power output each cycle
-power_trace_enabled                    1 # produce a file for the power trace (1=On, 0=Off)
-power_trace_zlevel                     6 # Compression level of the power trace output log (0=no comp, 9=highest)
-steady_power_levels_enabled                    0 # produce a file for the steady power levels (1=On, 0=Off)
-steady_state_definition                  8:4 # allowed deviation:number of samples
-gpgpu_max_cycle                        0 # terminates gpu simulation early (0 = no limit)
-gpgpu_max_insn                         0 # terminates gpu simulation early (0 = no limit)
-gpgpu_max_cta                          0 # terminates gpu simulation early (0 = no limit)
-gpgpu_runtime_stat                   500 # display runtime statistics such as dram utilization {<freq>:<flag>}
-liveness_message_freq                    1 # Minimum number of seconds between simulation liveness messages (0 = always print)
-gpgpu_flush_l1_cache                    0 # Flush L1 cache at the end of each kernel call
-gpgpu_flush_l2_cache                    0 # Flush L2 cache at the end of each kernel call
-gpgpu_deadlock_detect                    1 # Stop the simulation at deadlock (1=on (default), 0=off)
-gpgpu_ptx_instruction_classification                    0 # if enabled will classify ptx instruction types per kernel (Max 255 kernels now)
-gpgpu_ptx_sim_mode                     0 # Select between Performance (default) or Functional simulation (1)
-gpgpu_clock_domains 700.0:700.0:700.0:533.0 # Clock Domain Frequencies in MhZ {<Core Clock>:<ICNT Clock>:<L2 Clock>:<DRAM Clock>}
-gpgpu_max_concurrent_kernel                    8 # maximum kernels that can run concurrently on GPU
-gpgpu_cflog_interval                    0 # Interval between each snapshot in control flow logger
-visualizer_enabled                     0 # Turn on visualizer output (1=On, 0=Off)
-visualizer_outputfile                 NULL # Specifies the output log file for visualizer
-visualizer_zlevel                      6 # Compression level of the visualizer output log (0=no comp, 9=highest)
-trace_enabled                          0 # Turn on traces
-trace_components                    none # comma seperated list of traces to enable. Complete list found in trace_streams.tup. Default none
-trace_sampling_core                    0 # The core which is printed using CORE_DPRINTF. Default 0
-trace_sampling_memory_partition                   -1 # The memory partition which is printed using MEMPART_DPRINTF. Default -1 (i.e. all)
-enable_ptx_file_line_stats                    1 # Turn on PTX source line statistic profiling. (1 = On)
-ptx_line_stats_filename gpgpu_inst_stats.txt # Output file for PTX source line statistics.
-save_embedded_ptx                      0 # saves ptx files embedded in binary as <n>.ptx
-keep                                   0 # keep intermediate files created by GPGPU-Sim when interfacing with external programs
-gpgpu_ptx_save_converted_ptxplus                    0 # Saved converted ptxplus to a file
-ptx_opcode_latency_int         4,13,4,5,145 # Opcode latencies for integers <ADD,MAX,MUL,MAD,DIV>Default 1,1,19,25,145
-ptx_opcode_latency_fp          4,13,4,5,39 # Opcode latencies for single precision floating points <ADD,MAX,MUL,MAD,DIV>Default 1,1,1,1,30
-ptx_opcode_latency_dp         8,19,8,8,330 # Opcode latencies for double precision floating points <ADD,MAX,MUL,MAD,DIV>Default 8,8,8,8,335
-ptx_opcode_initiation_int            1,2,2,1,8 # Opcode initiation intervals for integers <ADD,MAX,MUL,MAD,DIV>Default 1,1,4,4,32
-ptx_opcode_initiation_fp            1,2,1,1,4 # Opcode initiation intervals for single precision floating points <ADD,MAX,MUL,MAD,DIV>Default 1,1,1,1,5
-ptx_opcode_initiation_dp         8,16,8,8,130 # Opcode initiation intervals for double precision floating points <ADD,MAX,MUL,MAD,DIV>Default 8,8,8,8,130
DRAM Timing Options:
nbk                                    16 # number of banks
CCD                                     2 # column to column delay
RRD                                     6 # minimal delay between activation of rows in different banks
RCD                                     6 # row to column delay
RAS                                     2 # time needed to activate row
RP                                      1 # time needed to precharge (deactivate) row
RC                                      1 # row cycle time
CDLR                                    5 # switching from write to read (changes tWTR)
WR                                     20 # last data-in to row precharge
CL                                      5 # CAS latency
WL                                      4 # Write latency
nbkgrp                                  4 # number of bank groups
CCDL                                    3 # column to column delay between accesses to different bank groups
RTPL                                    2 # read to precharge delay between accesses to different bank groups
Total number of memory sub partition = 16
addr_dec_mask[CHIP]  = 0000000000000f00 	high:12 low:8
addr_dec_mask[BK]    = 00000000000e1000 	high:20 low:12
addr_dec_mask[ROW]   = 00000000fff00000 	high:32 low:20
addr_dec_mask[COL]   = 000000000001e0ff 	high:17 low:0
addr_dec_mask[BURST] = 000000000000003f 	high:6 low:0
sub_partition_id_mask = 0000000000000000
GPGPU-Sim uArch: clock freqs: 700000000.000000:700000000.000000:700000000.000000:533000000.000000
GPGPU-Sim uArch: clock periods: 0.00000000142857142857:0.00000000142857142857:0.00000000142857142857:0.00000000187617260788
*** Initializing Memory Statistics ***
GPGPU-Sim uArch: interconnect node map (shaderID+MemID to icntID)
GPGPU-Sim uArch: Memory nodes ID start from index: 15
GPGPU-Sim uArch:    0   1   2   3   4
GPGPU-Sim uArch:    5   6   7   8   9
GPGPU-Sim uArch:   10  11  12  13  14
GPGPU-Sim uArch:   15  16  17  18  19
GPGPU-Sim uArch:   20  21  22  23  24
GPGPU-Sim uArch:   25  26  27  28  29
GPGPU-Sim uArch:   30
GPGPU-Sim uArch: interconnect node reverse map (icntID to shaderID+MemID)
GPGPU-Sim uArch: Memory nodes start from ID: 15
GPGPU-Sim uArch:    0   1   2   3   4
GPGPU-Sim uArch:    5   6   7   8   9
GPGPU-Sim uArch:   10  11  12  13  14
GPGPU-Sim uArch:   15  16  17  18  19
GPGPU-Sim uArch:   20  21  22  23  24
GPGPU-Sim uArch:   25  26  27  28  29
GPGPU-Sim uArch:   30
cb5e932cf64b28607709a17c17468a9a  /home/bing/cu_learn/im2col/src/bin/main
GPGPU-Sim uArch: performance model initialization complete.
GPGPU-Sim PTX: __cudaRegisterFatBinary, fat_cubin_handle = 1, filename=/home/bing/cu_learn/im2col/src/col2im.cu
self exe links to: /home/bing/cu_learn/im2col/src/bin/main
Running md5sum using "md5sum /home/bing/cu_learn/im2col/src/bin/main "
Running cuobjdump using "$CUDA_INSTALL_PATH/bin/cuobjdump -ptx -elf -sass /home/bing/cu_learn/im2col/src/bin/main > _cuobjdump_complete_output_aBZu3g"
Parsing file _cuobjdump_complete_output_aBZu3g
######### cuobjdump parser ########
## Adding new section ELF
Adding arch: sm_20
Adding identifier: /home/bing/cu_learn/im2col/src/col2im.cu
## Adding new section PTX
Adding ptx filename: _cuobjdump_1.ptx
Adding arch: sm_20
Adding identifier: /home/bing/cu_learn/im2col/src/col2im.cu
## Adding new section ELF
Adding arch: sm_20
Adding identifier: /home/bing/cu_learn/im2col/src/cuda_conv.cu
## Adding new section PTX
Adding ptx filename: _cuobjdump_2.ptx
Adding arch: sm_20
Adding identifier: /home/bing/cu_learn/im2col/src/cuda_conv.cu
## Adding new section ELF
Adding arch: sm_20
Adding identifier: /home/bing/cu_learn/im2col/src/fc.cu
## Adding new section PTX
Adding ptx filename: _cuobjdump_3.ptx
Adding arch: sm_20
Adding identifier: /home/bing/cu_learn/im2col/src/fc.cu
## Adding new section ELF
Adding arch: sm_20
Adding identifier: /home/bing/cu_learn/im2col/src/im2col.cu
## Adding new section PTX
Adding ptx filename: _cuobjdump_4.ptx
Adding arch: sm_20
Adding identifier: /home/bing/cu_learn/im2col/src/im2col.cu
## Adding new section ELF
Adding arch: sm_20
Adding identifier: /home/bing/cu_learn/im2col/src/pooling.cu
## Adding new section PTX
Adding ptx filename: _cuobjdump_5.ptx
Adding arch: sm_20
Adding identifier: /home/bing/cu_learn/im2col/src/pooling.cu
## Adding new section ELF
Adding arch: sm_20
Adding identifier: /home/bing/cu_learn/im2col/src/sigmoid.cu
## Adding new section PTX
Adding ptx filename: _cuobjdump_6.ptx
Adding arch: sm_20
Adding identifier: /home/bing/cu_learn/im2col/src/sigmoid.cu
Done parsing!!!
GPGPU-Sim PTX: __cudaRegisterFunction _Z17col2im_gpu_kernelIdEviPKT_iiiiiiiiPS0_ : hostFun 0x0x401370, fat_cubin_handle = 1
GPGPU-Sim PTX: instruction assembly for function '_Z17col2im_gpu_kernelIfEviPKT_iiiiiiiiPS0_'...   done.
GPGPU-Sim PTX: finding reconvergence points for '_Z17col2im_gpu_kernelIfEviPKT_iiiiiiiiPS0_'...
GPGPU-Sim PTX: Finding dominators for '_Z17col2im_gpu_kernelIfEviPKT_iiiiiiiiPS0_'...
GPGPU-Sim PTX: Finding immediate dominators for '_Z17col2im_gpu_kernelIfEviPKT_iiiiiiiiPS0_'...
GPGPU-Sim PTX: Finding postdominators for '_Z17col2im_gpu_kernelIfEviPKT_iiiiiiiiPS0_'...
GPGPU-Sim PTX: Finding immediate postdominators for '_Z17col2im_gpu_kernelIfEviPKT_iiiiiiiiPS0_'...
GPGPU-Sim PTX: pre-decoding instructions for '_Z17col2im_gpu_kernelIfEviPKT_iiiiiiiiPS0_'...
GPGPU-Sim PTX: reconvergence points for _Z17col2im_gpu_kernelIfEviPKT_iiiiiiiiPS0_...
GPGPU-Sim PTX:  1 (potential) branch divergence @  PC=0x040 (_1.ptx:79) @%p1 bra $Lt_0_4866;
GPGPU-Sim PTX:    immediate post dominator      @  PC=0x338 (_1.ptx:195) exit;
GPGPU-Sim PTX:  2 (potential) branch divergence @  PC=0x0d0 (_1.ptx:99) @%p2 bra $Lt_0_5890;
GPGPU-Sim PTX:    immediate post dominator      @  PC=0x100 (_1.ptx:108) div.s32 %r21, %r6, %r15;
GPGPU-Sim PTX:  3 (potential) branch divergence @  PC=0x0f0 (_1.ptx:104) bra.uni $Lt_0_5634;
GPGPU-Sim PTX:    immediate post dominator      @  PC=0x100 (_1.ptx:108) div.s32 %r21, %r6, %r15;
GPGPU-Sim PTX:  4 (potential) branch divergence @  PC=0x120 (_1.ptx:112) @%p3 bra $Lt_0_6402;
GPGPU-Sim PTX:    immediate post dominator      @  PC=0x150 (_1.ptx:122) mov.s32 %r27, %r26;
GPGPU-Sim PTX:  5 (potential) branch divergence @  PC=0x140 (_1.ptx:117) bra.uni $Lt_0_6146;
GPGPU-Sim PTX:    immediate post dominator      @  PC=0x150 (_1.ptx:122) mov.s32 %r27, %r26;
GPGPU-Sim PTX:  6 (potential) branch divergence @  PC=0x178 (_1.ptx:127) @%p4 bra $Lt_0_9218;
GPGPU-Sim PTX:    immediate post dominator      @  PC=0x310 (_1.ptx:188) st.global.f32 [%rd5+0], %f1;
GPGPU-Sim PTX:  7 (potential) branch divergence @  PC=0x250 (_1.ptx:157) @!%p5 bra $Lt_0_7426;
GPGPU-Sim PTX:    immediate post dominator      @  PC=0x2e8 (_1.ptx:180) add.s32 %r27, %r27, 1;
GPGPU-Sim PTX:  8 (potential) branch divergence @  PC=0x2e0 (_1.ptx:178) @%p6 bra $Lt_0_7938;
GPGPU-Sim PTX:    immediate post dominator      @  PC=0x2e8 (_1.ptx:180) add.s32 %r27, %r27, 1;
GPGPU-Sim PTX:  9 (potential) branch divergence @  PC=0x2f8 (_1.ptx:182) @%p7 bra $Lt_0_7170;
GPGPU-Sim PTX:    immediate post dominator      @  PC=0x300 (_1.ptx:183) bra.uni $Lt_0_6658;
GPGPU-Sim PTX: 10 (potential) branch divergence @  PC=0x300 (_1.ptx:183) bra.uni $Lt_0_6658;
GPGPU-Sim PTX:    immediate post dominator      @  PC=0x310 (_1.ptx:188) st.global.f32 [%rd5+0], %f1;
GPGPU-Sim PTX: 11 (potential) branch divergence @  PC=0x330 (_1.ptx:192) @%p8 bra $Lt_0_5378;
GPGPU-Sim PTX:    immediate post dominator      @  PC=0x338 (_1.ptx:195) exit;
GPGPU-Sim PTX: ... end of reconvergence points for _Z17col2im_gpu_kernelIfEviPKT_iiiiiiiiPS0_
GPGPU-Sim PTX: ... done pre-decoding instructions for '_Z17col2im_gpu_kernelIfEviPKT_iiiiiiiiPS0_'.
GPGPU-Sim PTX: instruction assembly for function '_Z17col2im_gpu_kernelIdEviPKT_iiiiiiiiPS0_'...   done.
GPGPU-Sim PTX: finding reconvergence points for '_Z17col2im_gpu_kernelIdEviPKT_iiiiiiiiPS0_'...
GPGPU-Sim PTX: Finding dominators for '_Z17col2im_gpu_kernelIdEviPKT_iiiiiiiiPS0_'...
GPGPU-Sim PTX: Finding immediate dominators for '_Z17col2im_gpu_kernelIdEviPKT_iiiiiiiiPS0_'...
GPGPU-Sim PTX: Finding postdominators for '_Z17col2im_gpu_kernelIdEviPKT_iiiiiiiiPS0_'...
GPGPU-Sim PTX: Finding immediate postdominators for '_Z17col2im_gpu_kernelIdEviPKT_iiiiiiiiPS0_'...
GPGPU-Sim PTX: pre-decoding instructions for '_Z17col2im_gpu_kernelIdEviPKT_iiiiiiiiPS0_'...
GPGPU-Sim PTX: reconvergence points for _Z17col2im_gpu_kernelIdEviPKT_iiiiiiiiPS0_...
GPGPU-Sim PTX:  1 (potential) branch divergence @  PC=0x380 (_1.ptx:227) @%p1 bra $Lt_1_4866;
GPGPU-Sim PTX:    immediate post dominator      @  PC=0x678 (_1.ptx:343) exit;
GPGPU-Sim PTX:  2 (potential) branch divergence @  PC=0x410 (_1.ptx:247) @%p2 bra $Lt_1_5890;
GPGPU-Sim PTX:    immediate post dominator      @  PC=0x440 (_1.ptx:256) div.s32 %r21, %r6, %r15;
GPGPU-Sim PTX:  3 (potential) branch divergence @  PC=0x430 (_1.ptx:252) bra.uni $Lt_1_5634;
GPGPU-Sim PTX:    immediate post dominator      @  PC=0x440 (_1.ptx:256) div.s32 %r21, %r6, %r15;
GPGPU-Sim PTX:  4 (potential) branch divergence @  PC=0x460 (_1.ptx:260) @%p3 bra $Lt_1_6402;
GPGPU-Sim PTX:    immediate post dominator      @  PC=0x490 (_1.ptx:270) mov.s32 %r27, %r26;
GPGPU-Sim PTX:  5 (potential) branch divergence @  PC=0x480 (_1.ptx:265) bra.uni $Lt_1_6146;
GPGPU-Sim PTX:    immediate post dominator      @  PC=0x490 (_1.ptx:270) mov.s32 %r27, %r26;
GPGPU-Sim PTX:  6 (potential) branch divergence @  PC=0x4b8 (_1.ptx:275) @%p4 bra $Lt_1_9218;
GPGPU-Sim PTX:    immediate post dominator      @  PC=0x650 (_1.ptx:336) st.global.f64 [%rd5+0], %fd1;
GPGPU-Sim PTX:  7 (potential) branch divergence @  PC=0x590 (_1.ptx:305) @!%p5 bra $Lt_1_7426;
GPGPU-Sim PTX:    immediate post dominator      @  PC=0x628 (_1.ptx:328) add.s32 %r27, %r27, 1;
GPGPU-Sim PTX:  8 (potential) branch divergence @  PC=0x620 (_1.ptx:326) @%p6 bra $Lt_1_7938;
GPGPU-Sim PTX:    immediate post dominator      @  PC=0x628 (_1.ptx:328) add.s32 %r27, %r27, 1;
GPGPU-Sim PTX:  9 (potential) branch divergence @  PC=0x638 (_1.ptx:330) @%p7 bra $Lt_1_7170;
GPGPU-Sim PTX:    immediate post dominator      @  PC=0x640 (_1.ptx:331) bra.uni $Lt_1_6658;
GPGPU-Sim PTX: 10 (potential) branch divergence @  PC=0x640 (_1.ptx:331) bra.uni $Lt_1_6658;
GPGPU-Sim PTX:    immediate post dominator      @  PC=0x650 (_1.ptx:336) st.global.f64 [%rd5+0], %fd1;
GPGPU-Sim PTX: 11 (potential) branch divergence @  PC=0x670 (_1.ptx:340) @%p8 bra $Lt_1_5378;
GPGPU-Sim PTX:    immediate post dominator      @  PC=0x678 (_1.ptx:343) exit;
GPGPU-Sim PTX: ... end of reconvergence points for _Z17col2im_gpu_kernelIdEviPKT_iiiiiiiiPS0_
GPGPU-Sim PTX: ... done pre-decoding instructions for '_Z17col2im_gpu_kernelIdEviPKT_iiiiiiiiPS0_'.
GPGPU-Sim PTX: finished parsing EMBEDDED .ptx file _1.ptx
Adding _cuobjdump_1.ptx with cubin handle 1
GPGPU-Sim PTX: extracting embedded .ptx to temporary file "_ptx_bM3GHR"
Running: cat _ptx_bM3GHR | sed 's/.version 1.5/.version 1.4/' | sed 's/, texmode_independent//' | sed 's/\(\.extern \.const\[1\] .b8 \w\+\)\[\]/\1\[1\]/' | sed 's/const\[.\]/const\[0\]/g' > _ptx2_bosXls
GPGPU-Sim PTX: generating ptxinfo using "$CUDA_INSTALL_PATH/bin/ptxas --gpu-name=sm_20 -v _ptx2_bosXls --output-file  /dev/null 2> _ptx_bM3GHRinfo"
GPGPU-Sim PTX: Kernel '_Z17col2im_gpu_kernelIdEviPKT_iiiiiiiiPS0_' : regs=23, lmem=0, smem=0, cmem=88
GPGPU-Sim PTX: Kernel '_Z17col2im_gpu_kernelIfEviPKT_iiiiiiiiPS0_' : regs=21, lmem=0, smem=0, cmem=88
GPGPU-Sim PTX: removing ptxinfo using "rm -f _ptx_bM3GHR _ptx2_bosXls _ptx_bM3GHRinfo"
GPGPU-Sim PTX: loading globals with explicit initializers... 
GPGPU-Sim PTX: finished loading globals (0 bytes total).
GPGPU-Sim PTX: loading constants with explicit initializers...  done.
GPGPU-Sim PTX: __cudaRegisterFunction _Z17col2im_gpu_kernelIfEviPKT_iiiiiiiiPS0_ : hostFun 0x0x401380, fat_cubin_handle = 1
GPGPU-Sim PTX: __cudaRegisterFatBinary, fat_cubin_handle = 2, filename=/home/bing/cu_learn/im2col/src/cuda_conv.cu
GPGPU-Sim PTX: __cudaRegisterFatBinary, fat_cubin_handle = 3, filename=/home/bing/cu_learn/im2col/src/fc.cu
GPGPU-Sim PTX: __cudaRegisterFunction _Z12BiasBackwardIfEviiPKT_PS0_ : hostFun 0x0x4043e0, fat_cubin_handle = 3
GPGPU-Sim PTX: instruction assembly for function '_Z13fc_gpu_kernelPfS_S_iii'...   done.
GPGPU-Sim PTX: finding reconvergence points for '_Z13fc_gpu_kernelPfS_S_iii'...
GPGPU-Sim PTX: Finding dominators for '_Z13fc_gpu_kernelPfS_S_iii'...
GPGPU-Sim PTX: Finding immediate dominators for '_Z13fc_gpu_kernelPfS_S_iii'...
GPGPU-Sim PTX: Finding postdominators for '_Z13fc_gpu_kernelPfS_S_iii'...
GPGPU-Sim PTX: Finding immediate postdominators for '_Z13fc_gpu_kernelPfS_S_iii'...
GPGPU-Sim PTX: pre-decoding instructions for '_Z13fc_gpu_kernelPfS_S_iii'...
GPGPU-Sim PTX: reconvergence points for _Z13fc_gpu_kernelPfS_S_iii...
GPGPU-Sim PTX:  1 (potential) branch divergence @  PC=0x718 (_3.ptx:84) @%p1 bra $Lt_0_2306;
GPGPU-Sim PTX:    immediate post dominator      @  PC=0x838 (_3.ptx:126) exit;
GPGPU-Sim PTX:  2 (potential) branch divergence @  PC=0x738 (_3.ptx:88) @%p2 bra $Lt_0_2818;
GPGPU-Sim PTX:    immediate post dominator      @  PC=0x838 (_3.ptx:126) exit;
GPGPU-Sim PTX:  3 (potential) branch divergence @  PC=0x830 (_3.ptx:122) @%p3 bra $Lt_0_3330;
GPGPU-Sim PTX:    immediate post dominator      @  PC=0x838 (_3.ptx:126) exit;
GPGPU-Sim PTX: ... end of reconvergence points for _Z13fc_gpu_kernelPfS_S_iii
GPGPU-Sim PTX: ... done pre-decoding instructions for '_Z13fc_gpu_kernelPfS_S_iii'.
GPGPU-Sim PTX: instruction assembly for function '_Z17convdw_gpu_kernelPfS_S_iii'...   done.
GPGPU-Sim PTX: finding reconvergence points for '_Z17convdw_gpu_kernelPfS_S_iii'...
GPGPU-Sim PTX: Finding dominators for '_Z17convdw_gpu_kernelPfS_S_iii'...
GPGPU-Sim PTX: Finding immediate dominators for '_Z17convdw_gpu_kernelPfS_S_iii'...
GPGPU-Sim PTX: Finding postdominators for '_Z17convdw_gpu_kernelPfS_S_iii'...
GPGPU-Sim PTX: Finding immediate postdominators for '_Z17convdw_gpu_kernelPfS_S_iii'...
GPGPU-Sim PTX: pre-decoding instructions for '_Z17convdw_gpu_kernelPfS_S_iii'...
GPGPU-Sim PTX: reconvergence points for _Z17convdw_gpu_kernelPfS_S_iii...
GPGPU-Sim PTX:  1 (potential) branch divergence @  PC=0x8d8 (_3.ptx:163) @%p1 bra $Lt_1_2306;
GPGPU-Sim PTX:    immediate post dominator      @  PC=0x9f8 (_3.ptx:205) exit;
GPGPU-Sim PTX:  2 (potential) branch divergence @  PC=0x8f8 (_3.ptx:167) @%p2 bra $Lt_1_2818;
GPGPU-Sim PTX:    immediate post dominator      @  PC=0x9f8 (_3.ptx:205) exit;
GPGPU-Sim PTX:  3 (potential) branch divergence @  PC=0x9f0 (_3.ptx:201) @%p3 bra $Lt_1_3330;
GPGPU-Sim PTX:    immediate post dominator      @  PC=0x9f8 (_3.ptx:205) exit;
GPGPU-Sim PTX: ... end of reconvergence points for _Z17convdw_gpu_kernelPfS_S_iii
GPGPU-Sim PTX: ... done pre-decoding instructions for '_Z17convdw_gpu_kernelPfS_S_iii'.
GPGPU-Sim PTX: instruction assembly for function '_Z17convdx_gpu_kernelPfS_S_iii'...   done.
GPGPU-Sim PTX: finding reconvergence points for '_Z17convdx_gpu_kernelPfS_S_iii'...
GPGPU-Sim PTX: Finding dominators for '_Z17convdx_gpu_kernelPfS_S_iii'...
GPGPU-Sim PTX: Finding immediate dominators for '_Z17convdx_gpu_kernelPfS_S_iii'...
GPGPU-Sim PTX: Finding postdominators for '_Z17convdx_gpu_kernelPfS_S_iii'...
GPGPU-Sim PTX: Finding immediate postdominators for '_Z17convdx_gpu_kernelPfS_S_iii'...
GPGPU-Sim PTX: pre-decoding instructions for '_Z17convdx_gpu_kernelPfS_S_iii'...
GPGPU-Sim PTX: reconvergence points for _Z17convdx_gpu_kernelPfS_S_iii...
GPGPU-Sim PTX:  1 (potential) branch divergence @  PC=0xa98 (_3.ptx:242) @%p1 bra $Lt_2_2306;
GPGPU-Sim PTX:    immediate post dominator      @  PC=0xbb0 (_3.ptx:283) exit;
GPGPU-Sim PTX:  2 (potential) branch divergence @  PC=0xab8 (_3.ptx:246) @%p2 bra $Lt_2_2818;
GPGPU-Sim PTX:    immediate post dominator      @  PC=0xbb0 (_3.ptx:283) exit;
GPGPU-Sim PTX:  3 (potential) branch divergence @  PC=0xba8 (_3.ptx:279) @%p3 bra $Lt_2_3330;
GPGPU-Sim PTX:    immediate post dominator      @  PC=0xbb0 (_3.ptx:283) exit;
GPGPU-Sim PTX: ... end of reconvergence points for _Z17convdx_gpu_kernelPfS_S_iii
GPGPU-Sim PTX: ... done pre-decoding instructions for '_Z17convdx_gpu_kernelPfS_S_iii'.
GPGPU-Sim PTX: instruction assembly for function '_Z11BiasForwardIfEvPT_S1_iii'...   done.
GPGPU-Sim PTX: finding reconvergence points for '_Z11BiasForwardIfEvPT_S1_iii'...
GPGPU-Sim PTX: Finding dominators for '_Z11BiasForwardIfEvPT_S1_iii'...
GPGPU-Sim PTX: Finding immediate dominators for '_Z11BiasForwardIfEvPT_S1_iii'...
GPGPU-Sim PTX: Finding postdominators for '_Z11BiasForwardIfEvPT_S1_iii'...
GPGPU-Sim PTX: Finding immediate postdominators for '_Z11BiasForwardIfEvPT_S1_iii'...
GPGPU-Sim PTX: pre-decoding instructions for '_Z11BiasForwardIfEvPT_S1_iii'...
GPGPU-Sim PTX: reconvergence points for _Z11BiasForwardIfEvPT_S1_iii...
GPGPU-Sim PTX:  1 (potential) branch divergence @  PC=0xc50 (_3.ptx:319) @%p1 bra $Lt_3_1282;
GPGPU-Sim PTX:    immediate post dominator      @  PC=0xcc8 (_3.ptx:337) exit;
GPGPU-Sim PTX: ... end of reconvergence points for _Z11BiasForwardIfEvPT_S1_iii
GPGPU-Sim PTX: ... done pre-decoding instructions for '_Z11BiasForwardIfEvPT_S1_iii'.
GPGPU-Sim PTX: instruction assembly for function '_Z12BiasBackwardIfEviiPKT_PS0_'...   done.
GPGPU-Sim PTX: finding reconvergence points for '_Z12BiasBackwardIfEviiPKT_PS0_'...
GPGPU-Sim PTX: Finding dominators for '_Z12BiasBackwardIfEviiPKT_PS0_'...
GPGPU-Sim PTX: Finding immediate dominators for '_Z12BiasBackwardIfEviiPKT_PS0_'...
GPGPU-Sim PTX: Finding postdominators for '_Z12BiasBackwardIfEviiPKT_PS0_'...
GPGPU-Sim PTX: Finding immediate postdominators for '_Z12BiasBackwardIfEviiPKT_PS0_'...
GPGPU-Sim PTX: pre-decoding instructions for '_Z12BiasBackwardIfEviiPKT_PS0_'...
GPGPU-Sim PTX: reconvergence points for _Z12BiasBackwardIfEviiPKT_PS0_...
GPGPU-Sim PTX:  1 (potential) branch divergence @  PC=0xd10 (_3.ptx:362) @%p1 bra $Lt_4_1282;
GPGPU-Sim PTX:    immediate post dominator      @  PC=0xde8 (_3.ptx:394) exit;
GPGPU-Sim PTX:  2 (potential) branch divergence @  PC=0xde0 (_3.ptx:391) @%p2 bra $Lt_4_1794;
GPGPU-Sim PTX:    immediate post dominator      @  PC=0xde8 (_3.ptx:394) exit;
GPGPU-Sim PTX: ... end of reconvergence points for _Z12BiasBackwardIfEviiPKT_PS0_
GPGPU-Sim PTX: ... done pre-decoding instructions for '_Z12BiasBackwardIfEviiPKT_PS0_'.
GPGPU-Sim PTX: finished parsing EMBEDDED .ptx file _3.ptx
Adding _cuobjdump_3.ptx with cubin handle 3
GPGPU-Sim PTX: extracting embedded .ptx to temporary file "_ptx_Lo0jm3"
Running: cat _ptx_Lo0jm3 | sed 's/.version 1.5/.version 1.4/' | sed 's/, texmode_independent//' | sed 's/\(\.extern \.const\[1\] .b8 \w\+\)\[\]/\1\[1\]/' | sed 's/const\[.\]/const\[0\]/g' > _ptx2_FbSnnE
GPGPU-Sim PTX: generating ptxinfo using "$CUDA_INSTALL_PATH/bin/ptxas --gpu-name=sm_20 -v _ptx2_FbSnnE --output-file  /dev/null 2> _ptx_Lo0jm3info"
GPGPU-Sim PTX: Kernel '_Z12BiasBackwardIfEviiPKT_PS0_' : regs=13, lmem=0, smem=0, cmem=56
GPGPU-Sim PTX: Kernel '_Z11BiasForwardIfEvPT_S1_iii' : regs=8, lmem=0, smem=0, cmem=60
GPGPU-Sim PTX: Kernel '_Z17convdx_gpu_kernelPfS_S_iii' : regs=12, lmem=0, smem=0, cmem=68
GPGPU-Sim PTX: Kernel '_Z17convdw_gpu_kernelPfS_S_iii' : regs=15, lmem=0, smem=0, cmem=68
GPGPU-Sim PTX: Kernel '_Z13fc_gpu_kernelPfS_S_iii' : regs=14, lmem=0, smem=0, cmem=68
GPGPU-Sim PTX: removing ptxinfo using "rm -f _ptx_Lo0jm3 _ptx2_FbSnnE _ptx_Lo0jm3info"
GPGPU-Sim PTX: loading globals with explicit initializers... 
GPGPU-Sim PTX: finished loading globals (0 bytes total).
GPGPU-Sim PTX: loading constants with explicit initializers...  done.
GPGPU-Sim PTX: __cudaRegisterFunction _Z11BiasForwardIfEvPT_S1_iii : hostFun 0x0x4043d0, fat_cubin_handle = 3
GPGPU-Sim PTX: __cudaRegisterFunction _Z17convdx_gpu_kernelPfS_S_iii : hostFun 0x0x402be0, fat_cubin_handle = 3
GPGPU-Sim PTX: __cudaRegisterFunction _Z17convdw_gpu_kernelPfS_S_iii : hostFun 0x0x402cd0, fat_cubin_handle = 3
GPGPU-Sim PTX: __cudaRegisterFunction _Z13fc_gpu_kernelPfS_S_iii : hostFun 0x0x402dc0, fat_cubin_handle = 3
GPGPU-Sim PTX: __cudaRegisterFatBinary, fat_cubin_handle = 4, filename=/home/bing/cu_learn/im2col/src/im2col.cu
GPGPU-Sim PTX: __cudaRegisterFunction _Z17im2col_gpu_kernelIdEviPKT_iiiiiiiPS0_ : hostFun 0x0x404bb0, fat_cubin_handle = 4
GPGPU-Sim PTX: instruction assembly for function '_Z17im2col_gpu_kernelIfEviPKT_iiiiiiiPS0_'...   done.
GPGPU-Sim PTX: finding reconvergence points for '_Z17im2col_gpu_kernelIfEviPKT_iiiiiiiPS0_'...
GPGPU-Sim PTX: Finding dominators for '_Z17im2col_gpu_kernelIfEviPKT_iiiiiiiPS0_'...
GPGPU-Sim PTX: Finding immediate dominators for '_Z17im2col_gpu_kernelIfEviPKT_iiiiiiiPS0_'...
GPGPU-Sim PTX: Finding postdominators for '_Z17im2col_gpu_kernelIfEviPKT_iiiiiiiPS0_'...
GPGPU-Sim PTX: Finding immediate postdominators for '_Z17im2col_gpu_kernelIfEviPKT_iiiiiiiPS0_'...
GPGPU-Sim PTX: pre-decoding instructions for '_Z17im2col_gpu_kernelIfEviPKT_iiiiiiiPS0_'...
GPGPU-Sim PTX: reconvergence points for _Z17im2col_gpu_kernelIfEviPKT_iiiiiiiPS0_...
GPGPU-Sim PTX:  1 (potential) branch divergence @  PC=0xe30 (_4.ptx:78) @%p1 bra $Lt_0_6146;
GPGPU-Sim PTX:    immediate post dominator      @  PC=0x10d0 (_4.ptx:177) exit;
GPGPU-Sim PTX:  2 (potential) branch divergence @  PC=0xee0 (_4.ptx:103) @!%p2 bra $Lt_0_6914;
GPGPU-Sim PTX:    immediate post dominator      @  PC=0x10b8 (_4.ptx:172) add.u32 %r6, %r6, %r11;
GPGPU-Sim PTX:  3 (potential) branch divergence @  PC=0xfd8 (_4.ptx:139) @!%p3 bra $Lt_0_10242;
GPGPU-Sim PTX:    immediate post dominator      @  PC=0x1060 (_4.ptx:160) st.global.f32 [%rd12+0], %f1;
GPGPU-Sim PTX:  4 (potential) branch divergence @  PC=0xff8 (_4.ptx:143) @%p4 bra $Lt_0_10242;
GPGPU-Sim PTX:    immediate post dominator      @  PC=0x1060 (_4.ptx:160) st.global.f32 [%rd12+0], %f1;
GPGPU-Sim PTX:  5 (potential) branch divergence @  PC=0x1008 (_4.ptx:145) @%p5 bra $Lt_0_10242;
GPGPU-Sim PTX:    immediate post dominator      @  PC=0x1060 (_4.ptx:160) st.global.f32 [%rd12+0], %f1;
GPGPU-Sim PTX:  6 (potential) branch divergence @  PC=0x1018 (_4.ptx:147) @%p6 bra $Lt_0_10242;
GPGPU-Sim PTX:    immediate post dominator      @  PC=0x1060 (_4.ptx:160) st.global.f32 [%rd12+0], %f1;
GPGPU-Sim PTX:  7 (potential) branch divergence @  PC=0x1050 (_4.ptx:155) bra.uni $L_0_4866;
GPGPU-Sim PTX:    immediate post dominator      @  PC=0x1060 (_4.ptx:160) st.global.f32 [%rd12+0], %f1;
GPGPU-Sim PTX:  8 (potential) branch divergence @  PC=0x1080 (_4.ptx:164) @%p7 bra $Lt_0_8194;
GPGPU-Sim PTX:    immediate post dominator      @  PC=0x1088 (_4.ptx:165) mul.lo.u64 %rd16, %rd10, %rd9;
GPGPU-Sim PTX:  9 (potential) branch divergence @  PC=0x10b0 (_4.ptx:170) @%p8 bra $Lt_0_7426;
GPGPU-Sim PTX:    immediate post dominator      @  PC=0x10b8 (_4.ptx:172) add.u32 %r6, %r6, %r11;
GPGPU-Sim PTX: 10 (potential) branch divergence @  PC=0x10c8 (_4.ptx:174) @%p9 bra $Lt_0_6658;
GPGPU-Sim PTX:    immediate post dominator      @  PC=0x10d0 (_4.ptx:177) exit;
GPGPU-Sim PTX: ... end of reconvergence points for _Z17im2col_gpu_kernelIfEviPKT_iiiiiiiPS0_
GPGPU-Sim PTX: ... done pre-decoding instructions for '_Z17im2col_gpu_kernelIfEviPKT_iiiiiiiPS0_'.
GPGPU-Sim PTX: instruction assembly for function '_Z17im2col_gpu_kernelIdEviPKT_iiiiiiiPS0_'...   done.
GPGPU-Sim PTX: finding reconvergence points for '_Z17im2col_gpu_kernelIdEviPKT_iiiiiiiPS0_'...
GPGPU-Sim PTX: Finding dominators for '_Z17im2col_gpu_kernelIdEviPKT_iiiiiiiPS0_'...
GPGPU-Sim PTX: Finding immediate dominators for '_Z17im2col_gpu_kernelIdEviPKT_iiiiiiiPS0_'...
GPGPU-Sim PTX: Finding postdominators for '_Z17im2col_gpu_kernelIdEviPKT_iiiiiiiPS0_'...
GPGPU-Sim PTX: Finding immediate postdominators for '_Z17im2col_gpu_kernelIdEviPKT_iiiiiiiPS0_'...
GPGPU-Sim PTX: pre-decoding instructions for '_Z17im2col_gpu_kernelIdEviPKT_iiiiiiiPS0_'...
GPGPU-Sim PTX: reconvergence points for _Z17im2col_gpu_kernelIdEviPKT_iiiiiiiPS0_...
GPGPU-Sim PTX:  1 (potential) branch divergence @  PC=0x1118 (_4.ptx:208) @%p1 bra $Lt_1_6146;
GPGPU-Sim PTX:    immediate post dominator      @  PC=0x13b8 (_4.ptx:307) exit;
GPGPU-Sim PTX:  2 (potential) branch divergence @  PC=0x11c8 (_4.ptx:233) @!%p2 bra $Lt_1_6914;
GPGPU-Sim PTX:    immediate post dominator      @  PC=0x13a0 (_4.ptx:302) add.u32 %r6, %r6, %r11;
GPGPU-Sim PTX:  3 (potential) branch divergence @  PC=0x12c0 (_4.ptx:269) @!%p3 bra $Lt_1_10242;
GPGPU-Sim PTX:    immediate post dominator      @  PC=0x1348 (_4.ptx:290) st.global.f64 [%rd12+0], %fd1;
GPGPU-Sim PTX:  4 (potential) branch divergence @  PC=0x12e0 (_4.ptx:273) @%p4 bra $Lt_1_10242;
GPGPU-Sim PTX:    immediate post dominator      @  PC=0x1348 (_4.ptx:290) st.global.f64 [%rd12+0], %fd1;
GPGPU-Sim PTX:  5 (potential) branch divergence @  PC=0x12f0 (_4.ptx:275) @%p5 bra $Lt_1_10242;
GPGPU-Sim PTX:    immediate post dominator      @  PC=0x1348 (_4.ptx:290) st.global.f64 [%rd12+0], %fd1;
GPGPU-Sim PTX:  6 (potential) branch divergence @  PC=0x1300 (_4.ptx:277) @%p6 bra $Lt_1_10242;
GPGPU-Sim PTX:    immediate post dominator      @  PC=0x1348 (_4.ptx:290) st.global.f64 [%rd12+0], %fd1;
GPGPU-Sim PTX:  7 (potential) branch divergence @  PC=0x1338 (_4.ptx:285) bra.uni $L_1_4866;
GPGPU-Sim PTX:    immediate post dominator      @  PC=0x1348 (_4.ptx:290) st.global.f64 [%rd12+0], %fd1;
GPGPU-Sim PTX:  8 (potential) branch divergence @  PC=0x1368 (_4.ptx:294) @%p7 bra $Lt_1_8194;
GPGPU-Sim PTX:    immediate post dominator      @  PC=0x1370 (_4.ptx:295) mul.lo.u64 %rd16, %rd10, %rd9;
GPGPU-Sim PTX:  9 (potential) branch divergence @  PC=0x1398 (_4.ptx:300) @%p8 bra $Lt_1_7426;
GPGPU-Sim PTX:    immediate post dominator      @  PC=0x13a0 (_4.ptx:302) add.u32 %r6, %r6, %r11;
GPGPU-Sim PTX: 10 (potential) branch divergence @  PC=0x13b0 (_4.ptx:304) @%p9 bra $Lt_1_6658;
GPGPU-Sim PTX:    immediate post dominator      @  PC=0x13b8 (_4.ptx:307) exit;
GPGPU-Sim PTX: ... end of reconvergence points for _Z17im2col_gpu_kernelIdEviPKT_iiiiiiiPS0_
GPGPU-Sim PTX: ... done pre-decoding instructions for '_Z17im2col_gpu_kernelIdEviPKT_iiiiiiiPS0_'.
GPGPU-Sim PTX: finished parsing EMBEDDED .ptx file _4.ptx
Adding _cuobjdump_4.ptx with cubin handle 4
GPGPU-Sim PTX: extracting embedded .ptx to temporary file "_ptx_tA20Bf"
Running: cat _ptx_tA20Bf | sed 's/.version 1.5/.version 1.4/' | sed 's/, texmode_independent//' | sed 's/\(\.extern \.const\[1\] .b8 \w\+\)\[\]/\1\[1\]/' | sed 's/const\[.\]/const\[0\]/g' > _ptx2_ZuSGQQ
GPGPU-Sim PTX: generating ptxinfo using "$CUDA_INSTALL_PATH/bin/ptxas --gpu-name=sm_20 -v _ptx2_ZuSGQQ --output-file  /dev/null 2> _ptx_tA20Bfinfo"
GPGPU-Sim PTX: Kernel '_Z17im2col_gpu_kernelIdEviPKT_iiiiiiiPS0_' : regs=23, lmem=0, smem=0, cmem=88
GPGPU-Sim PTX: Kernel '_Z17im2col_gpu_kernelIfEviPKT_iiiiiiiPS0_' : regs=21, lmem=0, smem=0, cmem=88
GPGPU-Sim PTX: removing ptxinfo using "rm -f _ptx_tA20Bf _ptx2_ZuSGQQ _ptx_tA20Bfinfo"
GPGPU-Sim PTX: loading globals with explicit initializers... 
GPGPU-Sim PTX: finished loading globals (0 bytes total).
GPGPU-Sim PTX: loading constants with explicit initializers...  done.
GPGPU-Sim PTX: __cudaRegisterFunction _Z17im2col_gpu_kernelIfEviPKT_iiiiiiiPS0_ : hostFun 0x0x404bc0, fat_cubin_handle = 4
GPGPU-Sim PTX: __cudaRegisterFatBinary, fat_cubin_handle = 5, filename=/home/bing/cu_learn/im2col/src/pooling.cu
GPGPU-Sim PTX: __cudaRegisterFunction _Z14MaxPoolForwardIfEviPKT_iiiiiiiiPS0_Pi : hostFun 0x0x405b60, fat_cubin_handle = 5
GPGPU-Sim PTX: instruction assembly for function '_Z15MaxPoolBackwardIfEviPKT_PKiiiiiiiiiiiiPS0_'...   done.
GPGPU-Sim PTX: finding reconvergence points for '_Z15MaxPoolBackwardIfEviPKT_PKiiiiiiiiiiiiPS0_'...
GPGPU-Sim PTX: Finding dominators for '_Z15MaxPoolBackwardIfEviPKT_PKiiiiiiiiiiiiPS0_'...
GPGPU-Sim PTX: Finding immediate dominators for '_Z15MaxPoolBackwardIfEviPKT_PKiiiiiiiiiiiiPS0_'...
GPGPU-Sim PTX: Finding postdominators for '_Z15MaxPoolBackwardIfEviPKT_PKiiiiiiiiiiiiPS0_'...
GPGPU-Sim PTX: Finding immediate postdominators for '_Z15MaxPoolBackwardIfEviPKT_PKiiiiiiiiiiiiPS0_'...
GPGPU-Sim PTX: pre-decoding instructions for '_Z15MaxPoolBackwardIfEviPKT_PKiiiiiiiiiiiiPS0_'...
GPGPU-Sim PTX: reconvergence points for _Z15MaxPoolBackwardIfEviPKT_PKiiiiiiiiiiiiPS0_...
GPGPU-Sim PTX:  1 (potential) branch divergence @  PC=0x1400 (_5.ptx:83) @%p1 bra $Lt_0_5634;
GPGPU-Sim PTX:    immediate post dominator      @  PC=0x1708 (_5.ptx:201) exit;
GPGPU-Sim PTX:  2 (potential) branch divergence @  PC=0x14a8 (_5.ptx:106) @%p2 bra $Lt_0_6658;
GPGPU-Sim PTX:    immediate post dominator      @  PC=0x14d8 (_5.ptx:115) rem.s32 %r24, %r6, %r17;
GPGPU-Sim PTX:  3 (potential) branch divergence @  PC=0x14c8 (_5.ptx:111) bra.uni $Lt_0_6402;
GPGPU-Sim PTX:    immediate post dominator      @  PC=0x14d8 (_5.ptx:115) rem.s32 %r24, %r6, %r17;
GPGPU-Sim PTX:  4 (potential) branch divergence @  PC=0x14f0 (_5.ptx:118) @%p3 bra $Lt_0_7170;
GPGPU-Sim PTX:    immediate post dominator      @  PC=0x1528 (_5.ptx:129) mov.s32 %r30, %r23;
GPGPU-Sim PTX:  5 (potential) branch divergence @  PC=0x1518 (_5.ptx:124) bra.uni $Lt_0_6914;
GPGPU-Sim PTX:    immediate post dominator      @  PC=0x1528 (_5.ptx:129) mov.s32 %r30, %r23;
GPGPU-Sim PTX:  6 (potential) branch divergence @  PC=0x1550 (_5.ptx:134) @%p4 bra $Lt_0_10498;
GPGPU-Sim PTX:    immediate post dominator      @  PC=0x16e0 (_5.ptx:194) st.global.f32 [%rd5+0], %f1;
GPGPU-Sim PTX:  7 (potential) branch divergence @  PC=0x1610 (_5.ptx:160) @!%p5 bra $Lt_0_8194;
GPGPU-Sim PTX:    immediate post dominator      @  PC=0x16b8 (_5.ptx:186) add.s32 %r30, %r30, 1;
GPGPU-Sim PTX:  8 (potential) branch divergence @  PC=0x1678 (_5.ptx:175) @%p6 bra $Lt_0_8962;
GPGPU-Sim PTX:    immediate post dominator      @  PC=0x1698 (_5.ptx:181) add.s32 %r51, %r51, 1;
GPGPU-Sim PTX:  9 (potential) branch divergence @  PC=0x16b0 (_5.ptx:184) @%p7 bra $Lt_0_8706;
GPGPU-Sim PTX:    immediate post dominator      @  PC=0x16b8 (_5.ptx:186) add.s32 %r30, %r30, 1;
GPGPU-Sim PTX: 10 (potential) branch divergence @  PC=0x16c8 (_5.ptx:188) @%p8 bra $Lt_0_7938;
GPGPU-Sim PTX:    immediate post dominator      @  PC=0x16d0 (_5.ptx:189) bra.uni $Lt_0_7426;
GPGPU-Sim PTX: 11 (potential) branch divergence @  PC=0x16d0 (_5.ptx:189) bra.uni $Lt_0_7426;
GPGPU-Sim PTX:    immediate post dominator      @  PC=0x16e0 (_5.ptx:194) st.global.f32 [%rd5+0], %f1;
GPGPU-Sim PTX: 12 (potential) branch divergence @  PC=0x1700 (_5.ptx:198) @%p9 bra $Lt_0_6146;
GPGPU-Sim PTX:    immediate post dominator      @  PC=0x1708 (_5.ptx:201) exit;
GPGPU-Sim PTX: ... end of reconvergence points for _Z15MaxPoolBackwardIfEviPKT_PKiiiiiiiiiiiiPS0_
GPGPU-Sim PTX: ... done pre-decoding instructions for '_Z15MaxPoolBackwardIfEviPKT_PKiiiiiiiiiiiiPS0_'.
GPGPU-Sim PTX: instruction assembly for function '_Z14MaxPoolForwardIfEviPKT_iiiiiiiiPS0_Pi'...   done.
GPGPU-Sim PTX: finding reconvergence points for '_Z14MaxPoolForwardIfEviPKT_iiiiiiiiPS0_Pi'...
GPGPU-Sim PTX: Finding dominators for '_Z14MaxPoolForwardIfEviPKT_iiiiiiiiPS0_Pi'...
GPGPU-Sim PTX: Finding immediate dominators for '_Z14MaxPoolForwardIfEviPKT_iiiiiiiiPS0_Pi'...
GPGPU-Sim PTX: Finding postdominators for '_Z14MaxPoolForwardIfEviPKT_iiiiiiiiPS0_Pi'...
GPGPU-Sim PTX: Finding immediate postdominators for '_Z14MaxPoolForwardIfEviPKT_iiiiiiiiPS0_Pi'...
GPGPU-Sim PTX: pre-decoding instructions for '_Z14MaxPoolForwardIfEviPKT_iiiiiiiiPS0_Pi'...
GPGPU-Sim PTX: reconvergence points for _Z14MaxPoolForwardIfEviPKT_iiiiiiiiPS0_Pi...
GPGPU-Sim PTX:  1 (potential) branch divergence @  PC=0x1750 (_5.ptx:234) @%p1 bra $Lt_1_4098;
GPGPU-Sim PTX:    immediate post dominator      @  PC=0x19f0 (_5.ptx:335) exit;
GPGPU-Sim PTX:  2 (potential) branch divergence @  PC=0x1828 (_5.ptx:264) @%p2 bra $Lt_1_7938;
GPGPU-Sim PTX:    immediate post dominator      @  PC=0x19b8 (_5.ptx:325) st.global.f32 [%rd5+0], %f1;
GPGPU-Sim PTX:  3 (potential) branch divergence @  PC=0x18f8 (_5.ptx:292) @!%p3 bra $Lt_1_5634;
GPGPU-Sim PTX:    immediate post dominator      @  PC=0x1988 (_5.ptx:316) add.s32 %r22, %r22, 1;
GPGPU-Sim PTX:  4 (potential) branch divergence @  PC=0x1950 (_5.ptx:305) @!%p4 bra $Lt_1_6402;
GPGPU-Sim PTX:    immediate post dominator      @  PC=0x1968 (_5.ptx:311) add.s32 %r46, %r46, 1;
GPGPU-Sim PTX:  5 (potential) branch divergence @  PC=0x1980 (_5.ptx:314) @%p5 bra $Lt_1_6146;
GPGPU-Sim PTX:    immediate post dominator      @  PC=0x1988 (_5.ptx:316) add.s32 %r22, %r22, 1;
GPGPU-Sim PTX:  6 (potential) branch divergence @  PC=0x1998 (_5.ptx:318) @%p6 bra $Lt_1_5378;
GPGPU-Sim PTX:    immediate post dominator      @  PC=0x19a0 (_5.ptx:319) bra.uni $Lt_1_4866;
GPGPU-Sim PTX:  7 (potential) branch divergence @  PC=0x19a0 (_5.ptx:319) bra.uni $Lt_1_4866;
GPGPU-Sim PTX:    immediate post dominator      @  PC=0x19b8 (_5.ptx:325) st.global.f32 [%rd5+0], %f1;
GPGPU-Sim PTX:  8 (potential) branch divergence @  PC=0x19e8 (_5.ptx:332) @%p7 bra $Lt_1_4610;
GPGPU-Sim PTX:    immediate post dominator      @  PC=0x19f0 (_5.ptx:335) exit;
GPGPU-Sim PTX: ... end of reconvergence points for _Z14MaxPoolForwardIfEviPKT_iiiiiiiiPS0_Pi
GPGPU-Sim PTX: ... done pre-decoding instructions for '_Z14MaxPoolForwardIfEviPKT_iiiiiiiiPS0_Pi'.
GPGPU-Sim PTX: finished parsing EMBEDDED .ptx file _5.ptx
Adding _cuobjdump_5.ptx with cubin handle 5
GPGPU-Sim PTX: extracting embedded .ptx to temporary file "_ptx_kqJsns"
Running: cat _ptx_kqJsns | sed 's/.version 1.5/.version 1.4/' | sed 's/, texmode_independent//' | sed 's/\(\.extern \.const\[1\] .b8 \w\+\)\[\]/\1\[1\]/' | sed 's/const\[.\]/const\[0\]/g' > _ptx2_S4noU3
GPGPU-Sim PTX: generating ptxinfo using "$CUDA_INSTALL_PATH/bin/ptxas --gpu-name=sm_20 -v _ptx2_S4noU3 --output-file  /dev/null 2> _ptx_kqJsnsinfo"
GPGPU-Sim PTX: Kernel '_Z14MaxPoolForwardIfEviPKT_iiiiiiiiPS0_Pi' : regs=22, lmem=0, smem=0, cmem=96
GPGPU-Sim PTX: Kernel '_Z15MaxPoolBackwardIfEviPKT_PKiiiiiiiiiiiiPS0_' : regs=23, lmem=0, smem=0, cmem=112
GPGPU-Sim PTX: removing ptxinfo using "rm -f _ptx_kqJsns _ptx2_S4noU3 _ptx_kqJsnsinfo"
GPGPU-Sim PTX: loading globals with explicit initializers... 
GPGPU-Sim PTX: finished loading globals (0 bytes total).
GPGPU-Sim PTX: loading constants with explicit initializers...  done.
GPGPU-Sim PTX: __cudaRegisterFunction _Z15MaxPoolBackwardIfEviPKT_PKiiiiiiiiiiiiPS0_ : hostFun 0x0x405b50, fat_cubin_handle = 5
GPGPU-Sim PTX: __cudaRegisterFatBinary, fat_cubin_handle = 6, filename=/home/bing/cu_learn/im2col/src/sigmoid.cu
GPGPU-Sim PTX: __cudaRegisterFunction _Z14SigmoidForwardIfEviPKT_PS0_ : hostFun 0x0x406590, fat_cubin_handle = 6
GPGPU-Sim PTX: instruction assembly for function '_Z12ReLUBackwardIfEviPKT_S2_PS0_'...   done.
GPGPU-Sim PTX: finding reconvergence points for '_Z12ReLUBackwardIfEviPKT_S2_PS0_'...
GPGPU-Sim PTX: Finding dominators for '_Z12ReLUBackwardIfEviPKT_S2_PS0_'...
GPGPU-Sim PTX: Finding immediate dominators for '_Z12ReLUBackwardIfEviPKT_S2_PS0_'...
GPGPU-Sim PTX: Finding postdominators for '_Z12ReLUBackwardIfEviPKT_S2_PS0_'...
GPGPU-Sim PTX: Finding immediate postdominators for '_Z12ReLUBackwardIfEviPKT_S2_PS0_'...
GPGPU-Sim PTX: pre-decoding instructions for '_Z12ReLUBackwardIfEviPKT_S2_PS0_'...
GPGPU-Sim PTX: reconvergence points for _Z12ReLUBackwardIfEviPKT_S2_PS0_...
GPGPU-Sim PTX:  1 (potential) branch divergence @  PC=0x1a38 (_6.ptx:72) @%p1 bra $Lt_0_2050;
GPGPU-Sim PTX:    immediate post dominator      @  PC=0x1b00 (_6.ptx:104) exit;
GPGPU-Sim PTX:  2 (potential) branch divergence @  PC=0x1a98 (_6.ptx:86) @!%p2 bra $Lt_0_3074;
GPGPU-Sim PTX:    immediate post dominator      @  PC=0x1ac8 (_6.ptx:95) add.u64 %rd9, %rd2, %rd4;
GPGPU-Sim PTX:  3 (potential) branch divergence @  PC=0x1ab8 (_6.ptx:91) bra.uni $Lt_0_2818;
GPGPU-Sim PTX:    immediate post dominator      @  PC=0x1ac8 (_6.ptx:95) add.u64 %rd9, %rd2, %rd4;
GPGPU-Sim PTX:  4 (potential) branch divergence @  PC=0x1af8 (_6.ptx:101) @%p3 bra $Lt_0_2562;
GPGPU-Sim PTX:    immediate post dominator      @  PC=0x1b00 (_6.ptx:104) exit;
GPGPU-Sim PTX: ... end of reconvergence points for _Z12ReLUBackwardIfEviPKT_S2_PS0_
GPGPU-Sim PTX: ... done pre-decoding instructions for '_Z12ReLUBackwardIfEviPKT_S2_PS0_'.
GPGPU-Sim PTX: instruction assembly for function '_Z11ReLUForwardIfEviPKT_PS0_'...   done.
GPGPU-Sim PTX: finding reconvergence points for '_Z11ReLUForwardIfEviPKT_PS0_'...
GPGPU-Sim PTX: Finding dominators for '_Z11ReLUForwardIfEviPKT_PS0_'...
GPGPU-Sim PTX: Finding immediate dominators for '_Z11ReLUForwardIfEviPKT_PS0_'...
GPGPU-Sim PTX: Finding postdominators for '_Z11ReLUForwardIfEviPKT_PS0_'...
GPGPU-Sim PTX: Finding immediate postdominators for '_Z11ReLUForwardIfEviPKT_PS0_'...
GPGPU-Sim PTX: pre-decoding instructions for '_Z11ReLUForwardIfEviPKT_PS0_'...
GPGPU-Sim PTX: reconvergence points for _Z11ReLUForwardIfEviPKT_PS0_...
GPGPU-Sim PTX:  1 (potential) branch divergence @  PC=0x1b48 (_6.ptx:128) @%p1 bra $Lt_1_1794;
GPGPU-Sim PTX:    immediate post dominator      @  PC=0x1be8 (_6.ptx:153) exit;
GPGPU-Sim PTX:  2 (potential) branch divergence @  PC=0x1be0 (_6.ptx:150) @%p2 bra $Lt_1_2306;
GPGPU-Sim PTX:    immediate post dominator      @  PC=0x1be8 (_6.ptx:153) exit;
GPGPU-Sim PTX: ... end of reconvergence points for _Z11ReLUForwardIfEviPKT_PS0_
GPGPU-Sim PTX: ... done pre-decoding instructions for '_Z11ReLUForwardIfEviPKT_PS0_'.
GPGPU-Sim PTX: instruction assembly for function '_Z14SigmoidForwardIfEviPKT_PS0_'...   done.
GPGPU-Sim PTX: finding reconvergence points for '_Z14SigmoidForwardIfEviPKT_PS0_'...
GPGPU-Sim PTX: Finding dominators for '_Z14SigmoidForwardIfEviPKT_PS0_'...
GPGPU-Sim PTX: Finding immediate dominators for '_Z14SigmoidForwardIfEviPKT_PS0_'...
GPGPU-Sim PTX: Finding postdominators for '_Z14SigmoidForwardIfEviPKT_PS0_'...
GPGPU-Sim PTX: Finding immediate postdominators for '_Z14SigmoidForwardIfEviPKT_PS0_'...
GPGPU-Sim PTX: pre-decoding instructions for '_Z14SigmoidForwardIfEviPKT_PS0_'...
GPGPU-Sim PTX: reconvergence points for _Z14SigmoidForwardIfEviPKT_PS0_...
GPGPU-Sim PTX:  1 (potential) branch divergence @  PC=0x1c30 (_6.ptx:178) @%p1 bra $Lt_2_4354;
GPGPU-Sim PTX:    immediate post dominator      @  PC=0x2040 (_6.ptx:341) exit;
GPGPU-Sim PTX:  2 (potential) branch divergence @  PC=0x1cc0 (_6.ptx:199) @!%p2 bra $Lt_2_5378;
GPGPU-Sim PTX:    immediate post dominator      @  PC=0x1ff0 (_6.ptx:329) mov.f64 %fd73, 0d3fe0000000000000;// 0.5
GPGPU-Sim PTX:  3 (potential) branch divergence @  PC=0x1df0 (_6.ptx:248) @%p3 bra $Lt_2_5890;
GPGPU-Sim PTX:    immediate post dominator      @  PC=0x1e88 (_6.ptx:275) mov.f64 %fd42, 0d3ff0000000000000;// 1
GPGPU-Sim PTX:  4 (potential) branch divergence @  PC=0x1e10 (_6.ptx:253) bra.uni $Lt_2_5634;
GPGPU-Sim PTX:    immediate post dominator      @  PC=0x1e88 (_6.ptx:275) mov.f64 %fd42, 0d3ff0000000000000;// 1
GPGPU-Sim PTX:  5 (potential) branch divergence @  PC=0x1e28 (_6.ptx:257) @%p4 bra $Lt_2_6402;
GPGPU-Sim PTX:    immediate post dominator      @  PC=0x1e50 (_6.ptx:266) mov.s32 %r18, 0;
GPGPU-Sim PTX:  6 (potential) branch divergence @  PC=0x1e40 (_6.ptx:261) bra.uni $Lt_2_6146;
GPGPU-Sim PTX:    immediate post dominator      @  PC=0x1e50 (_6.ptx:266) mov.s32 %r18, 0;
GPGPU-Sim PTX:  7 (potential) branch divergence @  PC=0x1f08 (_6.ptx:291) bra.uni $Lt_2_5122;
GPGPU-Sim PTX:    immediate post dominator      @  PC=0x1ff0 (_6.ptx:329) mov.f64 %fd73, 0d3fe0000000000000;// 0.5
GPGPU-Sim PTX:  8 (potential) branch divergence @  PC=0x2038 (_6.ptx:338) @%p6 bra $Lt_2_4866;
GPGPU-Sim PTX:    immediate post dominator      @  PC=0x2040 (_6.ptx:341) exit;
GPGPU-Sim PTX: ... end of reconvergence points for _Z14SigmoidForwardIfEviPKT_PS0_
GPGPU-Sim PTX: ... done pre-decoding instructions for '_Z14SigmoidForwardIfEviPKT_PS0_'.
GPGPU-Sim PTX: finished parsing EMBEDDED .ptx file _6.ptx
Adding _cuobjdump_6.ptx with cubin handle 6
GPGPU-Sim PTX: extracting embedded .ptx to temporary file "_ptx_qXmQJF"
Running: cat _ptx_qXmQJF | sed 's/.version 1.5/.version 1.4/' | sed 's/, texmode_independent//' | sed 's/\(\.extern \.const\[1\] .b8 \w\+\)\[\]/\1\[1\]/' | sed 's/const\[.\]/const\[0\]/g' > _ptx2_xhUkzh
GPGPU-Sim PTX: generating ptxinfo using "$CUDA_INSTALL_PATH/bin/ptxas --gpu-name=sm_20 -v _ptx2_xhUkzh --output-file  /dev/null 2> _ptx_qXmQJFinfo"
GPGPU-Sim PTX: Kernel '_Z14SigmoidForwardIfEviPKT_PS0_' : regs=26, lmem=0, smem=0, cmem=60
GPGPU-Sim PTX: Kernel '_Z11ReLUForwardIfEviPKT_PS0_' : regs=10, lmem=0, smem=0, cmem=56
GPGPU-Sim PTX: Kernel '_Z12ReLUBackwardIfEviPKT_S2_PS0_' : regs=9, lmem=0, smem=0, cmem=64
GPGPU-Sim PTX: removing ptxinfo using "rm -f _ptx_qXmQJF _ptx2_xhUkzh _ptx_qXmQJFinfo"
GPGPU-Sim PTX: loading globals with explicit initializers... 
GPGPU-Sim PTX: finished loading globals (0 bytes total).
GPGPU-Sim PTX: loading constants with explicit initializers...  done.
GPGPU-Sim PTX: __cudaRegisterFunction _Z11ReLUForwardIfEviPKT_PS0_ : hostFun 0x0x406510, fat_cubin_handle = 6
GPGPU-Sim PTX: __cudaRegisterFunction _Z12ReLUBackwardIfEviPKT_S2_PS0_ : hostFun 0x0x406480, fat_cubin_handle = 6

GPGPU-Sim PTX: cudaLaunch for 0x0x404bc0 (mode=performance simulation) on stream 0
GPGPU-Sim PTX: pushing kernel '_Z17im2col_gpu_kernelIfEviPKT_iiiiiiiPS0_' to stream 0, gridDim= (2,1,1) blockDim = (512,1,1) 
kernel '_Z17im2col_gpu_kernelIfEviPKT_iiiiiiiPS0_' transfer to GPU hardware scheduler
GPGPU-Sim uArch: Shader 1 bind to kernel 1 '_Z17im2col_gpu_kernelIfEviPKT_iiiiiiiPS0_'
GPGPU-Sim uArch: CTA/core = 2, limited by: regs
GPGPU-Sim uArch: core:  1, cta: 0 initialized @(1,0)
GPGPU-Sim uArch: Shader 2 bind to kernel 1 '_Z17im2col_gpu_kernelIfEviPKT_iiiiiiiPS0_'
GPGPU-Sim uArch: core:  2, cta: 0 initialized @(1,0)
GPGPU-Sim uArch: cycles simulated: 500  inst.: 5024 (ipc=10.0) sim_rate=5024 (inst/sec) elapsed = 0:0:00:01 / Sun Jul 29 09:42:11 2018
GPGPU-Sim PTX: 100000 instructions simulated : ctaid=(0,0,0) tid=(287,0,0)
GPGPU-Sim PTX: 200000 instructions simulated : ctaid=(0,0,0) tid=(63,0,0)
GPGPU-Sim PTX: 300000 instructions simulated : ctaid=(0,0,0) tid=(511,0,0)
GPGPU-Sim uArch: Shader 2 finished CTA #0 (6249,0), 0 CTAs running
GPGPU-Sim uArch: Shader 2 empty (release kernel 1 '_Z17im2col_gpu_kernelIfEviPKT_iiiiiiiPS0_').
GPGPU-Sim uArch: cycles simulated: 7000  inst.: 290112 (ipc=41.4) sim_rate=145056 (inst/sec) elapsed = 0:0:00:02 / Sun Jul 29 09:42:12 2018
GPGPU-Sim uArch: Shader 1 finished CTA #0 (8651,0), 0 CTAs running
GPGPU-Sim uArch: Shader 1 empty (release kernel 1 '_Z17im2col_gpu_kernelIfEviPKT_iiiiiiiPS0_').
GPGPU-Sim uArch: GPU detected kernel '_Z17im2col_gpu_kernelIfEviPKT_iiiiiiiPS0_' finished on shader 1.
kernel_name = _Z17im2col_gpu_kernelIfEviPKT_iiiiiiiPS0_ 
kernel_launch_uid = 1 
gpu_sim_cycle = 8652
gpu_sim_insn = 314944
gpu_ipc =      36.4013
gpu_tot_sim_cycle = 8652
gpu_tot_sim_insn = 314944
gpu_tot_ipc =      36.4013
gpu_tot_issued_cta = 0
gpu_stall_dramfull = 0
gpu_stall_icnt2sh    = 0
gpu_total_sim_rate=157472

========= Core cache stats =========
L1I_cache:
	L1I_total_cache_accesses = 6712
	L1I_total_cache_misses = 166
	L1I_total_cache_miss_rate = 0.0247
	L1I_total_cache_pending_hits = 0
	L1I_total_cache_reservation_fails = 0
L1D_cache:
	L1D_cache_core[0]: Access = 0, Miss = 0, Miss_rate = -nan, Pending_hits = 0, Reservation_fails = 0
	L1D_cache_core[1]: Access = 1227, Miss = 423, Miss_rate = 0.345, Pending_hits = 13, Reservation_fails = 0
	L1D_cache_core[2]: Access = 150, Miss = 57, Miss_rate = 0.380, Pending_hits = 2, Reservation_fails = 0
	L1D_cache_core[3]: Access = 0, Miss = 0, Miss_rate = -nan, Pending_hits = 0, Reservation_fails = 0
	L1D_cache_core[4]: Access = 0, Miss = 0, Miss_rate = -nan, Pending_hits = 0, Reservation_fails = 0
	L1D_cache_core[5]: Access = 0, Miss = 0, Miss_rate = -nan, Pending_hits = 0, Reservation_fails = 0
	L1D_cache_core[6]: Access = 0, Miss = 0, Miss_rate = -nan, Pending_hits = 0, Reservation_fails = 0
	L1D_cache_core[7]: Access = 0, Miss = 0, Miss_rate = -nan, Pending_hits = 0, Reservation_fails = 0
	L1D_cache_core[8]: Access = 0, Miss = 0, Miss_rate = -nan, Pending_hits = 0, Reservation_fails = 0
	L1D_cache_core[9]: Access = 0, Miss = 0, Miss_rate = -nan, Pending_hits = 0, Reservation_fails = 0
	L1D_cache_core[10]: Access = 0, Miss = 0, Miss_rate = -nan, Pending_hits = 0, Reservation_fails = 0
	L1D_cache_core[11]: Access = 0, Miss = 0, Miss_rate = -nan, Pending_hits = 0, Reservation_fails = 0
	L1D_cache_core[12]: Access = 0, Miss = 0, Miss_rate = -nan, Pending_hits = 0, Reservation_fails = 0
	L1D_cache_core[13]: Access = 0, Miss = 0, Miss_rate = -nan, Pending_hits = 0, Reservation_fails = 0
	L1D_cache_core[14]: Access = 0, Miss = 0, Miss_rate = -nan, Pending_hits = 0, Reservation_fails = 0
	L1D_total_cache_accesses = 1377
	L1D_total_cache_misses = 480
	L1D_total_cache_miss_rate = 0.3486
	L1D_total_cache_pending_hits = 15
	L1D_total_cache_reservation_fails = 0
	L1D_cache_data_port_util = 0.059
	L1D_cache_fill_port_util = 0.002
L1C_cache:
	L1C_total_cache_accesses = 194
	L1C_total_cache_misses = 32
	L1C_total_cache_miss_rate = 0.1649
	L1C_total_cache_pending_hits = 0
	L1C_total_cache_reservation_fails = 0
L1T_cache:
	L1T_total_cache_accesses = 0
	L1T_total_cache_misses = 0
	L1T_total_cache_pending_hits = 0
	L1T_total_cache_reservation_fails = 0

Total_core_cache_stats:
	Total_core_cache_stats_breakdown[GLOBAL_ACC_R][HIT] = 882
	Total_core_cache_stats_breakdown[GLOBAL_ACC_R][HIT_RESERVED] = 15
	Total_core_cache_stats_breakdown[GLOBAL_ACC_R][MISS] = 30
	Total_core_cache_stats_breakdown[CONST_ACC_R][HIT] = 162
	Total_core_cache_stats_breakdown[CONST_ACC_R][MISS] = 32
	Total_core_cache_stats_breakdown[GLOBAL_ACC_W][MISS] = 450
	Total_core_cache_stats_breakdown[INST_ACC_R][HIT] = 6546
	Total_core_cache_stats_breakdown[INST_ACC_R][MISS] = 166
Shader 0 warp_id issue ditsribution:
warp_id:

distro:

gpgpu_n_tot_thrd_icount = 377728
gpgpu_n_tot_w_icount = 11804
gpgpu_n_stall_shd_mem = 477
gpgpu_n_mem_read_local = 0
gpgpu_n_mem_write_local = 0
gpgpu_n_mem_read_global = 30
gpgpu_n_mem_write_global = 450
gpgpu_n_mem_texture = 0
gpgpu_n_mem_const = 2
gpgpu_n_load_insn  = 14400
gpgpu_n_store_insn = 14400
gpgpu_n_shmem_insn = 0
gpgpu_n_tex_insn = 0
gpgpu_n_const_mem_insn = 0
gpgpu_n_param_mem_insn = 6208
gpgpu_n_shmem_bkconflict = 0
gpgpu_n_cache_bkconflict = 0
gpgpu_n_intrawarp_mshr_merge = 0
gpgpu_n_cmem_portconflict = 0
gpgpu_stall_shd_mem[c_mem][bk_conf] = 0
gpgpu_stall_shd_mem[c_mem][mshr_rc] = 0
gpgpu_stall_shd_mem[c_mem][icnt_rc] = 0
gpgpu_stall_shd_mem[c_mem][data_port_stall] = 0
gpgpu_stall_shd_mem[t_mem][mshr_rc] = 0
gpgpu_stall_shd_mem[t_mem][icnt_rc] = 0
gpgpu_stall_shd_mem[t_mem][data_port_stall] = 0
gpgpu_stall_shd_mem[s_mem][bk_conf] = 0
gpgpu_stall_shd_mem[gl_mem][bk_conf] = 0
gpgpu_stall_shd_mem[gl_mem][coal_stall] = 477
gpgpu_stall_shd_mem[gl_mem][data_port_stall] = 0
gpgpu_stall_shd_mem[g_mem_ld][mshr_rc] = 0
gpgpu_stall_shd_mem[g_mem_ld][icnt_rc] = 0
gpgpu_stall_shd_mem[g_mem_ld][wb_icnt_rc] = 0
gpgpu_stall_shd_mem[g_mem_ld][wb_rsrv_fail] = 0
gpgpu_stall_shd_mem[g_mem_st][mshr_rc] = 0
gpgpu_stall_shd_mem[g_mem_st][icnt_rc] = 0
gpgpu_stall_shd_mem[g_mem_st][wb_icnt_rc] = 0
gpgpu_stall_shd_mem[g_mem_st][wb_rsrv_fail] = 0
gpgpu_stall_shd_mem[l_mem_ld][mshr_rc] = 0
gpgpu_stall_shd_mem[l_mem_ld][icnt_rc] = 0
gpgpu_stall_shd_mem[l_mem_ld][wb_icnt_rc] = 0
gpgpu_stall_shd_mem[l_mem_ld][wb_rsrv_fail] = 0
gpgpu_stall_shd_mem[l_mem_st][mshr_rc] = 0
gpgpu_stall_shd_mem[l_mem_st][icnt_rc] = 0
gpgpu_stall_shd_mem[l_mem_ld][wb_icnt_rc] = 0
gpgpu_stall_shd_mem[l_mem_ld][wb_rsrv_fail] = 0
gpu_reg_bank_conflict_stalls = 0
Warp Occupancy Distribution:
Stall:312	W0_Idle:7256	W0_Scoreboard:10458	W1:0	W2:0	W3:0	W4:0	W5:0	W6:0	W7:0	W8:0	W9:0	W10:0	W11:0	W12:0	W13:0	W14:0	W15:0	W16:0	W17:0	W18:0	W19:0	W20:0	W21:0	W22:0	W23:0	W24:0	W25:0	W26:0	W27:0	W28:0	W29:0	W30:0	W31:0	W32:11804
traffic_breakdown_coretomem[CONST_ACC_R] = 16 {8:2,}
traffic_breakdown_coretomem[GLOBAL_ACC_R] = 240 {8:30,}
traffic_breakdown_coretomem[GLOBAL_ACC_W] = 61200 {136:450,}
traffic_breakdown_coretomem[INST_ACC_R] = 112 {8:14,}
traffic_breakdown_memtocore[CONST_ACC_R] = 144 {72:2,}
traffic_breakdown_memtocore[GLOBAL_ACC_R] = 4080 {136:30,}
traffic_breakdown_memtocore[GLOBAL_ACC_W] = 3600 {8:450,}
traffic_breakdown_memtocore[INST_ACC_R] = 1904 {136:14,}
maxmrqlatency = 45 
maxdqlatency = 0 
maxmflatency = 287 
averagemflatency = 214 
max_icnt2mem_latency = 36 
max_icnt2sh_latency = 8651 
mrq_lat_table:331 	63 	349 	80 	99 	11 	0 	0 	0 	0 	0 	0 	0 	0 	0 	0 	0 	0 	0 	0 	0 	0 	0 	0 	0 	0 	0 	0 	0 	0 	0 	0 	
dq_lat_table:0 	0 	0 	0 	0 	0 	0 	0 	0 	0 	0 	0 	0 	0 	0 	0 	0 	0 	0 	0 	0 	0 	0 	0 	0 	0 	0 	0 	0 	0 	0 	0 	
mf_lat_table:0 	0 	0 	0 	0 	0 	0 	473 	9 	0 	0 	0 	0 	0 	0 	0 	0 	0 	0 	0 	0 	0 	0 	0 	0 	0 	0 	0 	0 	0 	0 	0 	
icnt2mem_lat_table:0 	0 	0 	368 	125 	3 	0 	0 	0 	0 	0 	0 	0 	0 	0 	0 	0 	0 	0 	0 	0 	0 	0 	0 	
icnt2sh_lat_table:0 	0 	0 	16 	6 	0 	10 	0 	0 	0 	0 	144 	301 	5 	0 	0 	0 	0 	0 	0 	0 	0 	0 	0 	
mf_lat_pw_table:0 	0 	0 	0 	0 	0 	0 	14 	0 	0 	0 	0 	0 	0 	0 	0 	0 	0 	0 	0 	0 	0 	0 	0 	0 	0 	0 	0 	0 	0 	0 	0 	
maximum concurrent accesses to same row:
dram[0]:         1         2         0         0         0         0         0         0         0         0         0         0         0         0         0         0 
dram[1]:         0         0         0         0         0         0         0         0         0         0         0         0         0         0         0         0 
dram[2]:         0         0         0         0         0         0         0         0         0         0         0         0         0         0         0         0 
dram[3]:         0         0         0         0         0         0         0         0         0         0         0         0         0         0         0         0 
dram[4]:         0         0         0         0         0         0         0         0         0         0         0         0         0         0         0         0 
dram[5]:         0         0         0         0         0         0         0         0         0         0         0         0         0         0         0         0 
dram[6]:         0         0         0         0         0         0         0         0         0         0         0         0         0         0         0         0 
dram[7]:         0         0         0         0         0         0         0         0         0         0         0         0         0         0         0         0 
dram[8]:         0         0         0         0         0         0         0         0         0         0         0         0         0         0         0         0 
dram[9]:         0         0         0         0         0         0         0         0         0         0         0         0         0         0         0         0 
dram[10]:         0         0         0         0         0         0         0         0         0         0         0         0         0         0         0         0 
dram[11]:         0         0         0         0         0         0         0         0         0         0         0         0         0         0         0         0 
dram[12]:         0         0         0         0         0         0         0         0         0         0         0         0         0         0         0         0 
dram[13]:         1         0         0         0         0         0         0         0         0         0         0         0         0         0         0         0 
dram[14]:         2         0         0         0         0         0         0         0         0         0         0         0         0         0         0         0 
dram[15]:         2         0         0         0         0         0         0         0         0         0         0         0         0         0         0         0 
maximum service time to same row:
dram[0]:      2460      1961         0         0         0         0         0         0         0         0         0         0         0         0         0         0 
dram[1]:      2227      2559         0         0         0         0         0         0         0         0         0         0         0         0         0         0 
dram[2]:      2231      2913         0         0         0         0         0         0         0         0         0         0         0         0         0         0 
dram[3]:      2237      2937         0         0         0         0         0         0         0         0         0         0         0         0         0         0 
dram[4]:      2241      2941         0         0         0         0         0         0         0         0         0         0         0         0         0         0 
dram[5]:      2242      2973         0         0         0         0         0         0         0         0         0         0         0         0         0         0 
dram[6]:      2249      2984         0         0         0         0         0         0         0         0         0         0         0         0         0         0 
dram[7]:      2253      3007         0         0         0         0         0         0         0         0         0         0         0         0         0         0 
dram[8]:      2258      3032         0         0         0         0         0         0         0         0         0         0         0         0         0         0 
dram[9]:      2263      3088         0         0         0         0         0         0         0         0         0         0         0         0         0         0 
dram[10]:      2211      2669         0         0         0         0         0         0         0         0         0         0         0         0         0         0 
dram[11]:      2216      3080         0         0         0         0         0         0         0         0         0         0         0         0         0         0 
dram[12]:      2790      3108         0         0         0         0         0         0         0         0         0         0         0         0         0         0 
dram[13]:      2614      3113         0         0         0         0         0         0         0         0         0         0         0         0         0         0 
dram[14]:      2403      3155         0         0         0         0         0         0         0         0         0         0         0         0         0         0 
dram[15]:      1443      3176         0         0         0         0         0         0         0         0         0         0         0         0         0         0 
average row accesses per activate:
dram[0]: 33.000000 15.000000      -nan      -nan      -nan      -nan      -nan      -nan      -nan      -nan      -nan      -nan      -nan      -nan      -nan      -nan 
dram[1]: 30.000000 28.000000      -nan      -nan      -nan      -nan      -nan      -nan      -nan      -nan      -nan      -nan      -nan      -nan      -nan      -nan 
dram[2]: 30.000000 28.000000      -nan      -nan      -nan      -nan      -nan      -nan      -nan      -nan      -nan      -nan      -nan      -nan      -nan      -nan 
dram[3]: 30.000000 28.000000      -nan      -nan      -nan      -nan      -nan      -nan      -nan      -nan      -nan      -nan      -nan      -nan      -nan      -nan 
dram[4]: 30.000000 28.000000      -nan      -nan      -nan      -nan      -nan      -nan      -nan      -nan      -nan      -nan      -nan      -nan      -nan      -nan 
dram[5]: 30.000000 28.000000      -nan      -nan      -nan      -nan      -nan      -nan      -nan      -nan      -nan      -nan      -nan      -nan      -nan      -nan 
dram[6]: 30.000000 28.000000      -nan      -nan      -nan      -nan      -nan      -nan      -nan      -nan      -nan      -nan      -nan      -nan      -nan      -nan 
dram[7]: 30.000000 28.000000      -nan      -nan      -nan      -nan      -nan      -nan      -nan      -nan      -nan      -nan      -nan      -nan      -nan      -nan 
dram[8]: 30.000000 28.000000      -nan      -nan      -nan      -nan      -nan      -nan      -nan      -nan      -nan      -nan      -nan      -nan      -nan      -nan 
dram[9]: 30.000000 28.000000      -nan      -nan      -nan      -nan      -nan      -nan      -nan      -nan      -nan      -nan      -nan      -nan      -nan      -nan 
dram[10]: 30.000000 28.000000      -nan      -nan      -nan      -nan      -nan      -nan      -nan      -nan      -nan      -nan      -nan      -nan      -nan      -nan 
dram[11]: 30.000000 28.000000      -nan      -nan      -nan      -nan      -nan      -nan      -nan      -nan      -nan      -nan      -nan      -nan      -nan      -nan 
dram[12]: 30.000000 28.000000      -nan      -nan      -nan      -nan      -nan      -nan      -nan      -nan      -nan      -nan      -nan      -nan      -nan      -nan 
dram[13]: 15.000000 28.000000      -nan      -nan      -nan      -nan      -nan      -nan      -nan      -nan      -nan      -nan      -nan      -nan      -nan      -nan 
dram[14]: 15.000000 28.000000      -nan      -nan      -nan      -nan      -nan      -nan      -nan      -nan      -nan      -nan      -nan      -nan      -nan      -nan 
dram[15]: 15.000000 28.000000      -nan      -nan      -nan      -nan      -nan      -nan      -nan      -nan      -nan      -nan      -nan      -nan      -nan      -nan 
average row locality = 933/36 = 25.916666
number of total memory accesses made:
dram[0]:         0         0         0         0         0         0         0         0         0         0         0         0         0         0         0         0 
dram[1]:         0         0         0         0         0         0         0         0         0         0         0         0         0         0         0         0 
dram[2]:         0         0         0         0         0         0         0         0         0         0         0         0         0         0         0         0 
dram[3]:         0         0         0         0         0         0         0         0         0         0         0         0         0         0         0         0 
dram[4]:         0         0         0         0         0         0         0         0         0         0         0         0         0         0         0         0 
dram[5]:         0         0         0         0         0         0         0         0         0         0         0         0         0         0         0         0 
dram[6]:         0         0         0         0         0         0         0         0         0         0         0         0         0         0         0         0 
dram[7]:         0         0         0         0         0         0         0         0         0         0         0         0         0         0         0         0 
dram[8]:         0         0         0         0         0         0         0         0         0         0         0         0         0         0         0         0 
dram[9]:         0         0         0         0         0         0         0         0         0         0         0         0         0         0         0         0 
dram[10]:         0         0         0         0         0         0         0         0         0         0         0         0         0         0         0         0 
dram[11]:         0         0         0         0         0         0         0         0         0         0         0         0         0         0         0         0 
dram[12]:         0         0         0         0         0         0         0         0         0         0         0         0         0         0         0         0 
dram[13]:         0         0         0         0         0         0         0         0         0         0         0         0         0         0         0         0 
dram[14]:         0         0         0         0         0         0         0         0         0         0         0         0         0         0         0         0 
dram[15]:         0         0         0         0         0         0         0         0         0         0         0         0         0         0         0         0 
total accesses: 0
min_bank_accesses = 0!
min_chip_accesses = 0!
number of total read accesses:
dram[0]:        17        16         0         0         0         0         0         0         0         0         0         0         0         0         0         0 
dram[1]:        16        14         0         0         0         0         0         0         0         0         0         0         0         0         0         0 
dram[2]:        16        14         0         0         0         0         0         0         0         0         0         0         0         0         0         0 
dram[3]:        16        14         0         0         0         0         0         0         0         0         0         0         0         0         0         0 
dram[4]:        16        14         0         0         0         0         0         0         0         0         0         0         0         0         0         0 
dram[5]:        16        14         0         0         0         0         0         0         0         0         0         0         0         0         0         0 
dram[6]:        16        14         0         0         0         0         0         0         0         0         0         0         0         0         0         0 
dram[7]:        16        14         0         0         0         0         0         0         0         0         0         0         0         0         0         0 
dram[8]:        16        14         0         0         0         0         0         0         0         0         0         0         0         0         0         0 
dram[9]:        16        14         0         0         0         0         0         0         0         0         0         0         0         0         0         0 
dram[10]:        16        14         0         0         0         0         0         0         0         0         0         0         0         0         0         0 
dram[11]:        16        14         0         0         0         0         0         0         0         0         0         0         0         0         0         0 
dram[12]:        16        14         0         0         0         0         0         0         0         0         0         0         0         0         0         0 
dram[13]:        16        14         0         0         0         0         0         0         0         0         0         0         0         0         0         0 
dram[14]:        16        14         0         0         0         0         0         0         0         0         0         0         0         0         0         0 
dram[15]:        16        14         0         0         0         0         0         0         0         0         0         0         0         0         0         0 
total reads: 483
min_bank_accesses = 0!
chip skew: 33/30 = 1.10
number of total write accesses:
dram[0]:        16        14         0         0         0         0         0         0         0         0         0         0         0         0         0         0 
dram[1]:        14        14         0         0         0         0         0         0         0         0         0         0         0         0         0         0 
dram[2]:        14        14         0         0         0         0         0         0         0         0         0         0         0         0         0         0 
dram[3]:        14        14         0         0         0         0         0         0         0         0         0         0         0         0         0         0 
dram[4]:        14        14         0         0         0         0         0         0         0         0         0         0         0         0         0         0 
dram[5]:        14        14         0         0         0         0         0         0         0         0         0         0         0         0         0         0 
dram[6]:        14        14         0         0         0         0         0         0         0         0         0         0         0         0         0         0 
dram[7]:        14        14         0         0         0         0         0         0         0         0         0         0         0         0         0         0 
dram[8]:        14        14         0         0         0         0         0         0         0         0         0         0         0         0         0         0 
dram[9]:        14        14         0         0         0         0         0         0         0         0         0         0         0         0         0         0 
dram[10]:        14        14         0         0         0         0         0         0         0         0         0         0         0         0         0         0 
dram[11]:        14        14         0         0         0         0         0         0         0         0         0         0         0         0         0         0 
dram[12]:        14        14         0         0         0         0         0         0         0         0         0         0         0         0         0         0 
dram[13]:        14        14         0         0         0         0         0         0         0         0         0         0         0         0         0         0 
dram[14]:        14        14         0         0         0         0         0         0         0         0         0         0         0         0         0         0 
dram[15]:        14        14         0         0         0         0         0         0         0         0         0         0         0         0         0         0 
total reads: 450
min_bank_accesses = 0!
chip skew: 30/28 = 1.07
average mf latency per bank:
dram[0]:        114        99    none      none      none      none      none      none      none      none      none      none      none      none      none      none  
dram[1]:        116       106    none      none      none      none      none      none      none      none      none      none      none      none      none      none  
dram[2]:        114       106    none      none      none      none      none      none      none      none      none      none      none      none      none      none  
[...]
dram[15]:        860      1014      1123       964       780      2494       327       379      4926      9290      1573      1788       722       623     49676       459
maximum mf latency per bank:
dram[0]:        510       437       537       598       348       335       367       348       578       640       559       356       405       437       326       316
dram[1]:        488       516       545       612       378       327       379       337       478       514       349       368       383       512       330       356
dram[2]:        502       540       533       444       386       353       331       353       461       467       323       339       495       491       326       326
dram[3]:        514       538       481       484       360       355       352       331       493       480       336       326       502       499       334       316
dram[4]:        513       465       419       599       422       345       314       363       473       488       332       337       575       489       373       375
dram[5]:        405       416       559       421       316       399       312       320       506       525       315       332       509       517       373       347
dram[6]:        436       529       613       406       380       449       339       334       604       596       437       558       362       429       367       326
dram[7]:        343       501       433       433       398       508       342       338       553       579       421       465       548       472       331       320
dram[8]:        418       416       498       558       329       432       360       324       504       542       313       361       525       420       317       326
dram[9]:        425       534       521       432       318       416       329       316       513       527       313       348       436       332       324       319
dram[10]:        491       463       497       559       329       466       397       377       516       444       351       381       568       547       351       349
dram[11]:        495       520       455       569       324       451       315       330       372       373       323       338       464       514       311       311
dram[12]:        487       494       475       482       347       459       326       328       421       386       330       346       367       462       436       461
dram[13]:        575       529       504       455       334       508       328       349       424       408       319       329       423       404       376       411
dram[14]:        553       496       342       447       314       516       347       317       417       482       360       358       433       384       316       349
dram[15]:        617       564       663       610       320       333       334       370       575       531       328       331       421       309       315       315

Number of Memory Banks Accessed per Memory Operation per Warp (from 0):
0	0	0	0	0	0	0	0	0	0	0	0	0	0	0	0	0	0	0	0	0	0	0	0	0	0	0	0	0	0	0	0	0	0	0	0	0	0	0	0	0	0	0	0	0	0	0	0	0	0	0	0	0	0	0	0	0	0	0	0	0	0	0	0	0	0	0	0	0	0	0	0	0	0	0	0	0	0	0	0	0	0	0	0	0	0	0	0	0	0	0	0	0	0	0	0	0	0	0	0	0	0	0	0	0	0	0	0	0	0	0	0	0	0	0	0	0	0	0	0	0	0	0	0	0	0	0	0	0	0	0	0	0	0	0	0	0	0	0	0	0	0	0	0	0	0	0	0	0	0	0	0	0	0	0	0	0	0	0	0	0	0	0	0	0	0	0	0	0	0	0	0	0	0	0	0	0	0	0	0	0	0	0	0	0	0	0	0	0	0	0	0	0	0	0	0	0	0	0	0	0	0	0	0	0	0	0	0	0	0	0	0	0	0	0	0	0	0	0	0	0	0	0	0	0	0	0	0	0	0	0	0	0	0	0	0	0	0	0	0	0	0	0	0	0	0	0	0	0	0	0	0	0	0	0	0	
Average # of Memory Banks Accessed per Memory Operation per Warp=-nan

position of mrq chosen
0	0	0	0	0	0	0	0	0	0	0	0	0	0	0	0	

average position of mrq chosen = -nan
Memory Partition 0: 
Cache L2_bank_000:
MSHR contents

In Dram Latency Queue (total = 0): 
DRAM[0]: 16 bks, busW=4 BL=8 CL=5, tRRD=2 tCCD=6, tRCD=6 tRAS=2 tRP=1 tRC=1
n_cmd=880372 n_nop=873920 n_act=539 n_pre=523 n_req=2695 n_rd=3854 n_write=1536 bw_util=0.01224
n_activity=26197 dram_eff=0.4115
bk0: 254a 878948i bk1: 250a 878873i bk2: 284a 878687i bk3: 286a 878608i bk4: 306a 878377i bk5: 300a 878307i bk6: 226a 878810i bk7: 212a 878806i bk8: 280a 878592i bk9: 280a 878577i bk10: 212a 879184i bk11: 212a 879085i bk12: 158a 879303i bk13: 160a 879261i bk14: 214a 879323i bk15: 220a 879270i 
dram_util_bins: 0 0 0 0 0 0 0 0 0 0
dram_eff_bins: 0 0 0 0 0 0 0 0 0 0
mrqq: max=8 avg=0.00508876
Memory Partition 1: 
Cache L2_bank_001:
MSHR contents

In Dram Latency Queue (total = 0): 
DRAM[1]: 16 bks, busW=4 BL=8 CL=5, tRRD=2 tCCD=6, tRCD=6 tRAS=2 tRP=1 tRC=1
n_cmd=880372 n_nop=873900 n_act=558 n_pre=542 n_req=2686 n_rd=3836 n_write=1536 bw_util=0.0122
n_activity=26182 dram_eff=0.4104
bk0: 252a 878795i bk1: 246a 878727i bk2: 280a 878871i bk3: 280a 878868i bk4: 308a 878494i bk5: 302a 878231i bk6: 220a 878966i bk7: 216a 878991i bk8: 280a 878545i bk9: 284a 878556i bk10: 208a 879048i bk11: 208a 879031i bk12: 154a 879281i bk13: 160a 879273i bk14: 218a 879305i bk15: 220a 879206i 
dram_util_bins: 0 0 0 0 0 0 0 0 0 0
dram_eff_bins: 0 0 0 0 0 0 0 0 0 0
mrqq: max=6 avg=0.00437883
Memory Partition 2: 
Cache L2_bank_002:
MSHR contents

In Dram Latency Queue (total = 0): 
DRAM[2]: 16 bks, busW=4 BL=8 CL=5, tRRD=2 tCCD=6, tRCD=6 tRAS=2 tRP=1 tRC=1
n_cmd=880372 n_nop=873916 n_act=554 n_pre=538 n_req=2682 n_rd=3838 n_write=1526 bw_util=0.01219
n_activity=25945 dram_eff=0.4135
bk0: 250a 878916i bk1: 252a 878794i bk2: 280a 878917i bk3: 284a 878787i bk4: 308a 878355i bk5: 300a 878184i bk6: 220a 878998i bk7: 214a 878811i bk8: 280a 878599i bk9: 284a 878452i bk10: 212a 879116i bk11: 210a 879085i bk12: 156a 879437i bk13: 164a 879290i bk14: 214a 879261i bk15: 210a 879270i 
dram_util_bins: 0 0 0 0 0 0 0 0 0 0
dram_eff_bins: 0 0 0 0 0 0 0 0 0 0
mrqq: max=8 avg=0.00477298
Memory Partition 3: 
Cache L2_bank_003:
MSHR contents

In Dram Latency Queue (total = 0): 
DRAM[3]: 16 bks, busW=4 BL=8 CL=5, tRRD=2 tCCD=6, tRCD=6 tRAS=2 tRP=1 tRC=1
n_cmd=880372 n_nop=873902 n_act=564 n_pre=548 n_req=2679 n_rd=3834 n_write=1524 bw_util=0.01217
n_activity=26153 dram_eff=0.4097
bk0: 250a 878990i bk1: 252a 878874i bk2: 280a 878860i bk3: 282a 878649i bk4: 306a 878488i bk5: 308a 878314i bk6: 220a 878985i bk7: 208a 879084i bk8: 284a 878506i bk9: 282a 878515i bk10: 204a 879179i bk11: 210a 879128i bk12: 160a 879331i bk13: 164a 879197i bk14: 214a 879272i bk15: 210a 879232i 
dram_util_bins: 0 0 0 0 0 0 0 0 0 0
dram_eff_bins: 0 0 0 0 0 0 0 0 0 0
mrqq: max=7 avg=0.00380294
Memory Partition 4: 
Cache L2_bank_004:
MSHR contents

In Dram Latency Queue (total = 0): 
DRAM[4]: 16 bks, busW=4 BL=8 CL=5, tRRD=2 tCCD=6, tRCD=6 tRAS=2 tRP=1 tRC=1
n_cmd=880372 n_nop=873928 n_act=548 n_pre=532 n_req=2682 n_rd=3834 n_write=1530 bw_util=0.01219
n_activity=25931 dram_eff=0.4137
bk0: 256a 878893i bk1: 254a 878768i bk2: 276a 878801i bk3: 288a 878623i bk4: 304a 878434i bk5: 304a 878326i bk6: 220a 878978i bk7: 208a 878886i bk8: 286a 878618i bk9: 284a 878466i bk10: 202a 879155i bk11: 210a 879133i bk12: 156a 879209i bk13: 160a 879200i bk14: 214a 879242i bk15: 212a 879215i 
dram_util_bins: 0 0 0 0 0 0 0 0 0 0
dram_eff_bins: 0 0 0 0 0 0 0 0 0 0
mrqq: max=5 avg=0.00375523
Memory Partition 5: 
Cache L2_bank_005:
MSHR contents

In Dram Latency Queue (total = 0): 
DRAM[5]: 16 bks, busW=4 BL=8 CL=5, tRRD=2 tCCD=6, tRCD=6 tRAS=2 tRP=1 tRC=1
n_cmd=880372 n_nop=873868 n_act=576 n_pre=560 n_req=2684 n_rd=3840 n_write=1528 bw_util=0.01219
n_activity=26169 dram_eff=0.4103
bk0: 256a 878925i bk1: 258a 878787i bk2: 278a 878810i bk3: 288a 878693i bk4: 304a 878541i bk5: 300a 878479i bk6: 214a 878982i bk7: 218a 878823i bk8: 286a 878547i bk9: 288a 878521i bk10: 206a 879157i bk11: 208a 879121i bk12: 156a 879303i bk13: 166a 879325i bk14: 210a 879279i bk15: 204a 879218i 
dram_util_bins: 0 0 0 0 0 0 0 0 0 0
dram_eff_bins: 0 0 0 0 0 0 0 0 0 0
mrqq: max=7 avg=0.00363823
Memory Partition 6: 
Cache L2_bank_006:
MSHR contents

In Dram Latency Queue (total = 0): 
DRAM[6]: 16 bks, busW=4 BL=8 CL=5, tRRD=2 tCCD=6, tRCD=6 tRAS=2 tRP=1 tRC=1
n_cmd=880372 n_nop=873782 n_act=614 n_pre=598 n_req=2689 n_rd=3846 n_write=1532 bw_util=0.01222
n_activity=26254 dram_eff=0.4097
bk0: 252a 878893i bk1: 254a 878717i bk2: 286a 878734i bk3: 288a 878591i bk4: 300a 878388i bk5: 300a 878299i bk6: 214a 878824i bk7: 224a 878770i bk8: 282a 878467i bk9: 286a 878522i bk10: 208a 879150i bk11: 212a 879112i bk12: 166a 879332i bk13: 168a 879156i bk14: 204a 879277i bk15: 202a 879225i 
dram_util_bins: 0 0 0 0 0 0 0 0 0 0
dram_eff_bins: 0 0 0 0 0 0 0 0 0 0
mrqq: max=7 avg=0.00410508
Memory Partition 7: 
Cache L2_bank_007:
MSHR contents

In Dram Latency Queue (total = 0): 
DRAM[7]: 16 bks, busW=4 BL=8 CL=5, tRRD=2 tCCD=6, tRCD=6 tRAS=2 tRP=1 tRC=1
n_cmd=880372 n_nop=873832 n_act=594 n_pre=578 n_req=2684 n_rd=3840 n_write=1528 bw_util=0.01219
n_activity=26267 dram_eff=0.4087
bk0: 254a 878860i bk1: 256a 878853i bk2: 278a 878725i bk3: 288a 878652i bk4: 296a 878568i bk5: 300a 878403i bk6: 220a 878911i bk7: 220a 878810i bk8: 282a 878578i bk9: 280a 878511i bk10: 206a 879222i bk11: 212a 879227i bk12: 164a 879238i bk13: 154a 879220i bk14: 212a 879344i bk15: 218a 879253i 
dram_util_bins: 0 0 0 0 0 0 0 0 0 0
dram_eff_bins: 0 0 0 0 0 0 0 0 0 0
mrqq: max=3 avg=0.00385292
Memory Partition 8: 
Cache L2_bank_008:
MSHR contents

In Dram Latency Queue (total = 0): 
DRAM[8]: 16 bks, busW=4 BL=8 CL=5, tRRD=2 tCCD=6, tRCD=6 tRAS=2 tRP=1 tRC=1
n_cmd=880372 n_nop=873906 n_act=548 n_pre=532 n_req=2693 n_rd=3854 n_write=1532 bw_util=0.01224
n_activity=25997 dram_eff=0.4144
bk0: 256a 878835i bk1: 252a 878818i bk2: 284a 878741i bk3: 292a 878649i bk4: 294a 878601i bk5: 296a 878500i bk6: 222a 878846i bk7: 218a 878828i bk8: 284a 878563i bk9: 280a 878508i bk10: 206a 879222i bk11: 214a 879116i bk12: 160a 879273i bk13: 156a 879250i bk14: 216a 879328i bk15: 224a 879127i 
dram_util_bins: 0 0 0 0 0 0 0 0 0 0
dram_eff_bins: 0 0 0 0 0 0 0 0 0 0
mrqq: max=6 avg=0.00467643
Memory Partition 9: 
Cache L2_bank_009:
MSHR contents

In Dram Latency Queue (total = 0): 
DRAM[9]: 16 bks, busW=4 BL=8 CL=5, tRRD=2 tCCD=6, tRCD=6 tRAS=2 tRP=1 tRC=1
n_cmd=880372 n_nop=873838 n_act=587 n_pre=571 n_req=2688 n_rd=3850 n_write=1526 bw_util=0.01221
n_activity=26230 dram_eff=0.4099
bk0: 254a 878762i bk1: 252a 878794i bk2: 286a 878838i bk3: 290a 878762i bk4: 300a 878353i bk5: 298a 878355i bk6: 220a 878984i bk7: 220a 878906i bk8: 276a 878607i bk9: 280a 878413i bk10: 208a 879087i bk11: 214a 878988i bk12: 156a 879314i bk13: 160a 879229i bk14: 216a 879247i bk15: 220a 879277i 
dram_util_bins: 0 0 0 0 0 0 0 0 0 0
dram_eff_bins: 0 0 0 0 0 0 0 0 0 0
mrqq: max=8 avg=0.00407101
Memory Partition 10: 
Cache L2_bank_010:
MSHR contents

In Dram Latency Queue (total = 0): 
DRAM[10]: 16 bks, busW=4 BL=8 CL=5, tRRD=2 tCCD=6, tRCD=6 tRAS=2 tRP=1 tRC=1
n_cmd=880372 n_nop=873778 n_act=614 n_pre=598 n_req=2691 n_rd=3854 n_write=1528 bw_util=0.01223
n_activity=26173 dram_eff=0.4113
bk0: 258a 878757i bk1: 254a 878725i bk2: 284a 878736i bk3: 284a 878543i bk4: 296a 878225i bk5: 304a 878235i bk6: 218a 878996i bk7: 224a 878923i bk8: 274a 878658i bk9: 284a 878463i bk10: 204a 879113i bk11: 208a 878926i bk12: 166a 879271i bk13: 160a 879267i bk14: 214a 879217i bk15: 222a 879104i 
dram_util_bins: 0 0 0 0 0 0 0 0 0 0
dram_eff_bins: 0 0 0 0 0 0 0 0 0 0
mrqq: max=8 avg=0.00482864
Memory Partition 11: 
Cache L2_bank_011:
MSHR contents

In Dram Latency Queue (total = 0): 
DRAM[11]: 16 bks, busW=4 BL=8 CL=5, tRRD=2 tCCD=6, tRCD=6 tRAS=2 tRP=1 tRC=1
n_cmd=880372 n_nop=873828 n_act=591 n_pre=575 n_req=2689 n_rd=3850 n_write=1528 bw_util=0.01222
n_activity=26439 dram_eff=0.4068
bk0: 262a 878743i bk1: 258a 878726i bk2: 282a 878733i bk3: 286a 878721i bk4: 302a 878428i bk5: 306a 878354i bk6: 216a 879105i bk7: 218a 878989i bk8: 278a 878697i bk9: 286a 878350i bk10: 206a 879207i bk11: 210a 879172i bk12: 158a 879382i bk13: 150a 879418i bk14: 212a 879343i bk15: 220a 879208i 
dram_util_bins: 0 0 0 0 0 0 0 0 0 0
dram_eff_bins: 0 0 0 0 0 0 0 0 0 0
mrqq: max=8 avg=0.00397332
Memory Partition 12: 
Cache L2_bank_012:
MSHR contents

In Dram Latency Queue (total = 0): 
DRAM[12]: 16 bks, busW=4 BL=8 CL=5, tRRD=2 tCCD=6, tRCD=6 tRAS=2 tRP=1 tRC=1
n_cmd=880372 n_nop=873856 n_act=585 n_pre=569 n_req=2681 n_rd=3834 n_write=1528 bw_util=0.01218
n_activity=26214 dram_eff=0.4091
bk0: 266a 878718i bk1: 252a 878788i bk2: 280a 878819i bk3: 288a 878724i bk4: 306a 878171i bk5: 308a 878279i bk6: 212a 879055i bk7: 214a 878887i bk8: 280a 878681i bk9: 284a 878440i bk10: 206a 879195i bk11: 210a 879132i bk12: 154a 879283i bk13: 156a 879254i bk14: 210a 879302i bk15: 208a 879306i 
dram_util_bins: 0 0 0 0 0 0 0 0 0 0
dram_eff_bins: 0 0 0 0 0 0 0 0 0 0
mrqq: max=6 avg=0.00440723
Memory Partition 13: 
Cache L2_bank_013:
MSHR contents

In Dram Latency Queue (total = 0): 
DRAM[13]: 16 bks, busW=4 BL=8 CL=5, tRRD=2 tCCD=6, tRCD=6 tRAS=2 tRP=1 tRC=1
n_cmd=880372 n_nop=873840 n_act=590 n_pre=574 n_req=2684 n_rd=3832 n_write=1536 bw_util=0.01219
n_activity=26309 dram_eff=0.4081
bk0: 262a 878863i bk1: 248a 878760i bk2: 282a 878728i bk3: 288a 878733i bk4: 300a 878345i bk5: 308a 878389i bk6: 210a 879049i bk7: 216a 878927i bk8: 282a 878670i bk9: 280a 878508i bk10: 202a 879292i bk11: 208a 879099i bk12: 164a 879341i bk13: 162a 879298i bk14: 212a 879076i bk15: 208a 879180i 
dram_util_bins: 0 0 0 0 0 0 0 0 0 0
dram_eff_bins: 0 0 0 0 0 0 0 0 0 0
mrqq: max=4 avg=0.00379953
Memory Partition 14: 
Cache L2_bank_014:
MSHR contents

In Dram Latency Queue (total = 0): 
DRAM[14]: 16 bks, busW=4 BL=8 CL=5, tRRD=2 tCCD=6, tRCD=6 tRAS=2 tRP=1 tRC=1
n_cmd=880372 n_nop=873872 n_act=573 n_pre=557 n_req=2685 n_rd=3834 n_write=1536 bw_util=0.0122
n_activity=26137 dram_eff=0.4109
bk0: 260a 878921i bk1: 256a 878900i bk2: 282a 878727i bk3: 284a 878741i bk4: 300a 878439i bk5: 310a 878338i bk6: 208a 878931i bk7: 218a 878882i bk8: 282a 878589i bk9: 282a 878479i bk10: 206a 879008i bk11: 212a 878982i bk12: 160a 879430i bk13: 154a 879366i bk14: 208a 879199i bk15: 212a 879130i 
dram_util_bins: 0 0 0 0 0 0 0 0 0 0
dram_eff_bins: 0 0 0 0 0 0 0 0 0 0
mrqq: max=5 avg=0.00411076
Memory Partition 15: 
Cache L2_bank_015:
MSHR contents

In Dram Latency Queue (total = 0): 
DRAM[15]: 16 bks, busW=4 BL=8 CL=5, tRRD=2 tCCD=6, tRCD=6 tRAS=2 tRP=1 tRC=1
n_cmd=880372 n_nop=873858 n_act=576 n_pre=560 n_req=2689 n_rd=3846 n_write=1532 bw_util=0.01222
n_activity=26148 dram_eff=0.4114
bk0: 262a 878812i bk1: 250a 878766i bk2: 290a 878658i bk3: 292a 878672i bk4: 300a 878384i bk5: 302a 878380i bk6: 210a 878977i bk7: 224a 878919i bk8: 274a 878593i bk9: 282a 878427i bk10: 214a 879234i bk11: 212a 879175i bk12: 160a 879354i bk13: 152a 879340i bk14: 210a 879316i bk15: 212a 879288i 
dram_util_bins: 0 0 0 0 0 0 0 0 0 0
dram_eff_bins: 0 0 0 0 0 0 0 0 0 0
mrqq: max=5 avg=0.00444926

========= L2 cache stats =========
L2_cache_bank[0]: Access = 65715, Miss = 1927, Miss_rate = 0.029, Pending_hits = 390, Reservation_fails = 141
L2_cache_bank[1]: Access = 67852, Miss = 1918, Miss_rate = 0.028, Pending_hits = 383, Reservation_fails = 221
L2_cache_bank[2]: Access = 60001, Miss = 1919, Miss_rate = 0.032, Pending_hits = 390, Reservation_fails = 204
L2_cache_bank[3]: Access = 59751, Miss = 1917, Miss_rate = 0.032, Pending_hits = 409, Reservation_fails = 68
L2_cache_bank[4]: Access = 60498, Miss = 1917, Miss_rate = 0.032, Pending_hits = 398, Reservation_fails = 198
L2_cache_bank[5]: Access = 58421, Miss = 1920, Miss_rate = 0.033, Pending_hits = 373, Reservation_fails = 252
L2_cache_bank[6]: Access = 55569, Miss = 1923, Miss_rate = 0.035, Pending_hits = 391, Reservation_fails = 271
L2_cache_bank[7]: Access = 58503, Miss = 1920, Miss_rate = 0.033, Pending_hits = 418, Reservation_fails = 393
L2_cache_bank[8]: Access = 57735, Miss = 1927, Miss_rate = 0.033, Pending_hits = 406, Reservation_fails = 442
L2_cache_bank[9]: Access = 40667, Miss = 1925, Miss_rate = 0.047, Pending_hits = 401, Reservation_fails = 262
L2_cache_bank[10]: Access = 28474, Miss = 1927, Miss_rate = 0.068, Pending_hits = 388, Reservation_fails = 217
L2_cache_bank[11]: Access = 26196, Miss = 1925, Miss_rate = 0.073, Pending_hits = 373, Reservation_fails = 221
L2_cache_bank[12]: Access = 23960, Miss = 1917, Miss_rate = 0.080, Pending_hits = 364, Reservation_fails = 213
L2_cache_bank[13]: Access = 58190, Miss = 1916, Miss_rate = 0.033, Pending_hits = 363, Reservation_fails = 172
L2_cache_bank[14]: Access = 61680, Miss = 1917, Miss_rate = 0.031, Pending_hits = 372, Reservation_fails = 63
L2_cache_bank[15]: Access = 59312, Miss = 1923, Miss_rate = 0.032, Pending_hits = 369, Reservation_fails = 101
L2_total_cache_accesses = 842524
L2_total_cache_misses = 30738
L2_total_cache_miss_rate = 0.0365
L2_total_cache_pending_hits = 6188
L2_total_cache_reservation_fails = 3439
L2_total_cache_breakdown:
	L2_cache_stats_breakdown[GLOBAL_ACC_R][HIT] = 42803
	L2_cache_stats_breakdown[GLOBAL_ACC_R][HIT_RESERVED] = 6120
	L2_cache_stats_breakdown[GLOBAL_ACC_R][MISS] = 27410
	L2_cache_stats_breakdown[GLOBAL_ACC_R][RESERVATION_FAIL] = 2731
	L2_cache_stats_breakdown[CONST_ACC_R][HIT] = 17
	L2_cache_stats_breakdown[CONST_ACC_R][HIT_RESERVED] = 2
	L2_cache_stats_breakdown[CONST_ACC_R][MISS] = 2
	L2_cache_stats_breakdown[GLOBAL_ACC_W][HIT] = 762525
	L2_cache_stats_breakdown[GLOBAL_ACC_W][MISS] = 3277
	L2_cache_stats_breakdown[INST_ACC_R][HIT] = 253
	L2_cache_stats_breakdown[INST_ACC_R][HIT_RESERVED] = 66
	L2_cache_stats_breakdown[INST_ACC_R][MISS] = 49
	L2_cache_stats_breakdown[INST_ACC_R][RESERVATION_FAIL] = 708
L2_cache_data_port_util = 0.071
L2_cache_fill_port_util = 0.007

icnt_total_pkts_mem_to_simt=1149370
icnt_total_pkts_simt_to_mem=1959958
LD_mem_lat_dist  0 0 0 0 0 0 0 0 0 0 0 0 0 0 0 0 0 0 0 0 0 0 0 0 0 0 0
ST_mem_lat_dist  0 0 0 0 0 0 0 0 0 0 0 0 0 0 0 0 0 0 0 0 0 0 0 0 0 0 0
----------------------------Interconnect-DETAILS--------------------------------
Class 0:
Packet latency average = 17.4677
	minimum = 6
	maximum = 86
Network latency average = 15.7339
	minimum = 6
	maximum = 86
Slowest packet = 1684999
Flit latency average = 18.4263
	minimum = 6
	maximum = 82
Slowest flit = 3109223
Fragmentation average = 0
	minimum = 0
	maximum = 0
Injected packet rate average = 0.00506329
	minimum = 0 (at node 7)
	maximum = 0.0518987 (at node 13)
Accepted packet rate average = 0.00506329
	minimum = 0 (at node 7)
	maximum = 0.0518987 (at node 13)
Injected flit rate average = 0.0127399
	minimum = 0 (at node 7)
	maximum = 0.0898734 (at node 28)
Accepted flit rate average= 0.0127399
	minimum = 0 (at node 7)
	maximum = 0.158228 (at node 13)
Injected packet length average = 2.51613
Accepted packet length average = 2.51613
Total in-flight flits = 0 (0 measured)
====== Overall Traffic Statistics ======
====== Traffic class 0 ======
Packet latency average = 14.1573 (30 samples)
	minimum = 6 (30 samples)
	maximum = 91.2 (30 samples)
Network latency average = 11.8068 (30 samples)
	minimum = 6 (30 samples)
	maximum = 81.6333 (30 samples)
Flit latency average = 11.5157 (30 samples)
	minimum = 6 (30 samples)
	maximum = 78.4 (30 samples)
Fragmentation average = 6.24998e-05 (30 samples)
	minimum = 0 (30 samples)
	maximum = 6.53333 (30 samples)
Injected packet rate average = 0.0241628 (30 samples)
	minimum = 0.0118398 (30 samples)
	maximum = 0.0595495 (30 samples)
Accepted packet rate average = 0.0241628 (30 samples)
	minimum = 0.0118398 (30 samples)
	maximum = 0.0595495 (30 samples)
Injected flit rate average = 0.0539483 (30 samples)
	minimum = 0.022607 (30 samples)
	maximum = 0.16904 (30 samples)
Accepted flit rate average = 0.0539483 (30 samples)
	minimum = 0.0221508 (30 samples)
	maximum = 0.139057 (30 samples)
Injected packet size average = 2.2327 (30 samples)
Accepted packet size average = 2.2327 (30 samples)
Hops average = 1 (30 samples)
----------------------------END-of-Interconnect-DETAILS-------------------------


gpgpu_simulation_time = 0 days, 0 hrs, 6 min, 32 sec (392 sec)
gpgpu_simulation_rate = 131678 (inst/sec)
gpgpu_simulation_rate = 2949 (cycle/sec)
