

        *** GPGPU-Sim Simulator Version 3.2.2  [build 0] ***


GPGPU-Sim PTX: simulation mode 0 (can change with PTX_SIM_MODE_FUNC environment variable:
               1=functional simulation only, 0=detailed performance simulator)
GPGPU-Sim: Configuration options:

-network_mode                           1 # Interconnection network mode
-inter_config_file   config_fermi_islip.icnt # Interconnection network config file
-gpgpu_ptx_use_cuobjdump                    1 # Use cuobjdump to extract ptx and sass from binaries
-gpgpu_experimental_lib_support                    0 # Try to extract code from cuda libraries [Broken because of unknown cudaGetExportTable]
-gpgpu_ptx_convert_to_ptxplus                    0 # Convert SASS (native ISA) to ptxplus and run ptxplus
-gpgpu_ptx_force_max_capability                   20 # Force maximum compute capability
-gpgpu_ptx_inst_debug_to_file                    0 # Dump executed instructions' debug information to file
-gpgpu_ptx_inst_debug_file       inst_debug.txt # Executed instructions' debug output file
-gpgpu_ptx_inst_debug_thread_uid                    1 # Thread UID for executed instructions' debug output
-gpgpu_simd_model                       1 # 1 = post-dominator
-gpgpu_shader_core_pipeline              1536:32 # shader core pipeline config, i.e., {<nthread>:<warpsize>}
-gpgpu_tex_cache:l1  4:128:24,L:R:m:N:L,F:128:4,128:2 # per-shader L1 texture cache  (READ-ONLY) config  {<nsets>:<bsize>:<assoc>,<rep>:<wr>:<alloc>:<wr_alloc>,<mshr>:<N>:<merge>,<mq>:<rf>}
-gpgpu_const_cache:l1 64:64:2,L:R:f:N:L,A:2:32,4 # per-shader L1 constant memory cache  (READ-ONLY) config  {<nsets>:<bsize>:<assoc>,<rep>:<wr>:<alloc>:<wr_alloc>,<mshr>:<N>:<merge>,<mq>} 
-gpgpu_cache:il1     4:128:4,L:R:f:N:L,A:2:32,4 # shader L1 instruction cache config  {<nsets>:<bsize>:<assoc>,<rep>:<wr>:<alloc>:<wr_alloc>,<mshr>:<N>:<merge>,<mq>} 
-gpgpu_cache:dl1     32:128:4,L:L:m:N:H,A:32:8,8 # per-shader L1 data cache config  {<nsets>:<bsize>:<assoc>,<rep>:<wr>:<alloc>:<wr_alloc>,<mshr>:<N>:<merge>,<mq> | none}
-gpgpu_cache:dl1PrefL1                 none # per-shader L1 data cache config  {<nsets>:<bsize>:<assoc>,<rep>:<wr>:<alloc>:<wr_alloc>,<mshr>:<N>:<merge>,<mq> | none}
-gpgpu_cache:dl1PreShared                 none # per-shader L1 data cache config  {<nsets>:<bsize>:<assoc>,<rep>:<wr>:<alloc>:<wr_alloc>,<mshr>:<N>:<merge>,<mq> | none}
-gmem_skip_L1D                          0 # global memory access skip L1D cache (implements -Xptxas -dlcm=cg, default=no skip)
-gpgpu_perfect_mem                      0 # enable perfect memory mode (no cache miss)
-n_regfile_gating_group                    4 # group of lanes that should be read/written together)
-gpgpu_clock_gated_reg_file                    0 # enable clock gated reg file for power calculations
-gpgpu_clock_gated_lanes                    0 # enable clock gated lanes for power calculations
-gpgpu_shader_registers                32768 # Number of registers per shader core. Limits number of concurrent CTAs. (default 8192)
-gpgpu_shader_cta                       8 # Maximum number of concurrent CTAs in shader (default 8)
-gpgpu_num_cta_barriers                   16 # Maximum number of named barriers per CTA (default 16)
-gpgpu_n_clusters                      15 # number of processing clusters
-gpgpu_n_cores_per_cluster                    1 # number of simd cores per cluster
-gpgpu_n_cluster_ejection_buffer_size                    8 # number of packets in ejection buffer
-gpgpu_n_ldst_response_buffer_size                    2 # number of response packets in ld/st unit ejection buffer
-gpgpu_shmem_size                   16384 # Size of shared memory per shader core (default 16kB)
-gpgpu_shmem_size                   49152 # Size of shared memory per shader core (default 16kB)
-gpgpu_shmem_size_PrefL1                16384 # Size of shared memory per shader core (default 16kB)
-gpgpu_shmem_size_PrefShared                16384 # Size of shared memory per shader core (default 16kB)
-gpgpu_shmem_num_banks                   32 # Number of banks in the shared memory in each shader core (default 16)
-gpgpu_shmem_limited_broadcast                    0 # Limit shared memory to do one broadcast per cycle (default on)
-gpgpu_shmem_warp_parts                    1 # Number of portions a warp is divided into for shared memory bank conflict check 
-gpgpu_warpdistro_shader                   -1 # Specify which shader core to collect the warp size distribution from
-gpgpu_warp_issue_shader                    0 # Specify which shader core to collect the warp issue distribution from
-gpgpu_local_mem_map                    1 # Mapping from local memory space address to simulated GPU physical address space (default = enabled)
-gpgpu_num_reg_banks                   16 # Number of register banks (default = 8)
-gpgpu_reg_bank_use_warp_id                    0 # Use warp ID in mapping registers to banks (default = off)
-gpgpu_operand_collector_num_units_sp                    6 # number of collector units (default = 4)
-gpgpu_operand_collector_num_units_sfu                    8 # number of collector units (default = 4)
-gpgpu_operand_collector_num_units_mem                    2 # number of collector units (default = 2)
-gpgpu_operand_collector_num_units_gen                    0 # number of collector units (default = 0)
-gpgpu_operand_collector_num_in_ports_sp                    2 # number of collector unit in ports (default = 1)
-gpgpu_operand_collector_num_in_ports_sfu                    1 # number of collector unit in ports (default = 1)
-gpgpu_operand_collector_num_in_ports_mem                    1 # number of collector unit in ports (default = 1)
-gpgpu_operand_collector_num_in_ports_gen                    0 # number of collector unit in ports (default = 0)
-gpgpu_operand_collector_num_out_ports_sp                    2 # number of collector unit in ports (default = 1)
-gpgpu_operand_collector_num_out_ports_sfu                    1 # number of collector unit in ports (default = 1)
-gpgpu_operand_collector_num_out_ports_mem                    1 # number of collector unit in ports (default = 1)
-gpgpu_operand_collector_num_out_ports_gen                    0 # number of collector unit in ports (default = 0)
-gpgpu_coalesce_arch                   13 # Coalescing arch (default = 13, anything else is off for now)
-gpgpu_num_sched_per_core                    2 # Number of warp schedulers per core
-gpgpu_max_insn_issue_per_warp                    1 # Max number of instructions that can be issued per warp in one cycle by scheduler
-gpgpu_simt_core_sim_order                    1 # Select the simulation order of cores in a cluster (0=Fix, 1=Round-Robin)
-gpgpu_pipeline_widths        2,1,1,2,1,1,2 # Pipeline widths ID_OC_SP,ID_OC_SFU,ID_OC_MEM,OC_EX_SP,OC_EX_SFU,OC_EX_MEM,EX_WB
-gpgpu_num_sp_units                     2 # Number of SP units (default=1)
-gpgpu_num_sfu_units                    1 # Number of SF units (default=1)
-gpgpu_num_mem_units                    1 # Number if ldst units (default=1) WARNING: not hooked up to anything
-gpgpu_scheduler                      gto # Scheduler configuration: < lrr | gto | two_level_active > If two_level_active:<num_active_warps>:<inner_prioritization>:<outer_prioritization>For complete list of prioritization values see shader.h enum scheduler_prioritization_typeDefault: gto
-gpgpu_dram_scheduler                    1 # 0 = fifo, 1 = FR-FCFS (defaul)
-gpgpu_dram_partition_queues              8:8:8:8 # i2$:$2d:d2$:$2i
-l2_ideal                               0 # Use a ideal L2 cache that always hit
-gpgpu_cache:dl2     64:128:8,L:B:m:W:L,A:32:4,4:0,32 # unified banked L2 data cache config  {<nsets>:<bsize>:<assoc>,<rep>:<wr>:<alloc>:<wr_alloc>,<mshr>:<N>:<merge>,<mq>}
-gpgpu_cache:dl2_texture_only                    0 # L2 cache used for texture only
-gpgpu_n_mem                            6 # number of memory modules (e.g. memory controllers) in gpu
-gpgpu_n_sub_partition_per_mchannel                    2 # number of memory subpartition in each memory module
-gpgpu_n_mem_per_ctrlr                    2 # number of memory chips per memory controller
-gpgpu_memlatency_stat                   14 # track and display latency statistics 0x2 enables MC, 0x4 enables queue logs
-gpgpu_frfcfs_dram_sched_queue_size                   16 # 0 = unlimited (default); # entries per chip
-gpgpu_dram_return_queue_size                  116 # 0 = unlimited (default); # entries per chip
-gpgpu_dram_buswidth                    4 # default = 4 bytes (8 bytes per cycle at DDR)
-gpgpu_dram_burst_length                    8 # Burst length of each DRAM request (default = 4 data bus cycle)
-dram_data_command_freq_ratio                    4 # Frequency ratio between DRAM data bus and command bus (default = 2 times, i.e. DDR)
-gpgpu_dram_timing_opt nbk=16:CCD=2:RRD=6:RCD=12:RAS=28:RP=1:RC=1: CL=5:WL=4:CDLR=5:WR=20:nbkgrp=4:CCDL=3:RTPL=2 # DRAM timing parameters = {nbk:tCCD:tRRD:tRCD:tRAS:tRP:tRC:CL:WL:tCDLR:tWR:nbkgrp:tCCDL:tRTPL}
-rop_latency                          120 # ROP queue latency (default 85)
-dram_latency                         100 # DRAM latency (default 30)
-gpgpu_mem_addr_mapping dramid@8;00000000.00000000.00000000.00000000.0000RRRR.RRRRRRRR.BBBCCCCB.CCSSSSSS # mapping memory address to dram model {dramid@<start bit>;<memory address map>}
-gpgpu_mem_addr_test                    0 # run sweep test to check address mapping for aliased address
-gpgpu_mem_address_mask                    1 # 0 = old addressing mask, 1 = new addressing mask, 2 = new add. mask + flipped bank sel and chip sel bits
-gpuwattch_xml_file  gpuwattch_gtx480.xml # GPUWattch XML file
-power_simulation_enabled                    1 # Turn on power simulator (1=On, 0=Off)
-power_per_cycle_dump                    0 # Dump detailed power output each cycle
-power_trace_enabled                    0 # produce a file for the power trace (1=On, 0=Off)
-power_trace_zlevel                     6 # Compression level of the power trace output log (0=no comp, 9=highest)
-steady_power_levels_enabled                    0 # produce a file for the steady power levels (1=On, 0=Off)
-steady_state_definition                  8:4 # allowed deviation:number of samples
-gpgpu_max_cycle                        0 # terminates gpu simulation early (0 = no limit)
-gpgpu_max_insn                         0 # terminates gpu simulation early (0 = no limit)
-gpgpu_max_cta                          0 # terminates gpu simulation early (0 = no limit)
-gpgpu_runtime_stat                   500 # display runtime statistics such as dram utilization {<freq>:<flag>}
-liveness_message_freq                    1 # Minimum number of seconds between simulation liveness messages (0 = always print)
-gpgpu_flush_l1_cache                    0 # Flush L1 cache at the end of each kernel call
-gpgpu_flush_l2_cache                    0 # Flush L2 cache at the end of each kernel call
-gpgpu_deadlock_detect                    1 # Stop the simulation at deadlock (1=on (default), 0=off)
-gpgpu_ptx_instruction_classification                    0 # if enabled will classify ptx instruction types per kernel (Max 255 kernels now)
-gpgpu_ptx_sim_mode                     0 # Select between Performance (default) or Functional simulation (1)
-gpgpu_clock_domains 700.0:700.0:700.0:533.0 # Clock Domain Frequencies in MhZ {<Core Clock>:<ICNT Clock>:<L2 Clock>:<DRAM Clock>}
-gpgpu_max_concurrent_kernel                    8 # maximum kernels that can run concurrently on GPU
-gpgpu_cflog_interval                    0 # Interval between each snapshot in control flow logger
-visualizer_enabled                     0 # Turn on visualizer output (1=On, 0=Off)
-visualizer_outputfile                 NULL # Specifies the output log file for visualizer
-visualizer_zlevel                      6 # Compression level of the visualizer output log (0=no comp, 9=highest)
-trace_enabled                          0 # Turn on traces
-trace_components                    none # comma seperated list of traces to enable. Complete list found in trace_streams.tup. Default none
-trace_sampling_core                    0 # The core which is printed using CORE_DPRINTF. Default 0
-trace_sampling_memory_partition                   -1 # The memory partition which is printed using MEMPART_DPRINTF. Default -1 (i.e. all)
-enable_ptx_file_line_stats                    1 # Turn on PTX source line statistic profiling. (1 = On)
-ptx_line_stats_filename gpgpu_inst_stats.txt # Output file for PTX source line statistics.
-save_embedded_ptx                      0 # saves ptx files embedded in binary as <n>.ptx
-keep                                   0 # keep intermediate files created by GPGPU-Sim when interfacing with external programs
-gpgpu_ptx_save_converted_ptxplus                    0 # Saved converted ptxplus to a file
-ptx_opcode_latency_int         4,13,4,5,145 # Opcode latencies for integers <ADD,MAX,MUL,MAD,DIV>Default 1,1,19,25,145
-ptx_opcode_latency_fp          4,13,4,5,39 # Opcode latencies for single precision floating points <ADD,MAX,MUL,MAD,DIV>Default 1,1,1,1,30
-ptx_opcode_latency_dp         8,19,8,8,330 # Opcode latencies for double precision floating points <ADD,MAX,MUL,MAD,DIV>Default 8,8,8,8,335
-ptx_opcode_initiation_int            1,2,2,1,8 # Opcode initiation intervals for integers <ADD,MAX,MUL,MAD,DIV>Default 1,1,4,4,32
-ptx_opcode_initiation_fp            1,2,1,1,4 # Opcode initiation intervals for single precision floating points <ADD,MAX,MUL,MAD,DIV>Default 1,1,1,1,5
-ptx_opcode_initiation_dp         8,16,8,8,130 # Opcode initiation intervals for double precision floating points <ADD,MAX,MUL,MAD,DIV>Default 8,8,8,8,130
DRAM Timing Options:
nbk                                    16 # number of banks
CCD                                     2 # column to column delay
RRD                                     6 # minimal delay between activation of rows in different banks
RCD                                    12 # row to column delay
RAS                                    28 # time needed to activate row
RP                                      1 # time needed to precharge (deactivate) row
RC                                      1 # row cycle time
CDLR                                    5 # switching from write to read (changes tWTR)
WR                                     20 # last data-in to row precharge
CL                                      5 # CAS latency
WL                                      4 # Write latency
nbkgrp                                  4 # number of bank groups
CCDL                                    3 # column to column delay between accesses to different bank groups
RTPL                                    2 # read to precharge delay between accesses to different bank groups
Total number of memory sub partition = 12
addr_dec_mask[CHIP]  = 0000000000000000 	high:64 low:0
addr_dec_mask[BK]    = 000000000000e100 	high:16 low:8
addr_dec_mask[ROW]   = 000000000fff0000 	high:28 low:16
addr_dec_mask[COL]   = 0000000000001eff 	high:13 low:0
addr_dec_mask[BURST] = 000000000000003f 	high:6 low:0
sub_partition_id_mask = 0000000000000100
GPGPU-Sim uArch: clock freqs: 700000000.000000:700000000.000000:700000000.000000:533000000.000000
GPGPU-Sim uArch: clock periods: 0.00000000142857142857:0.00000000142857142857:0.00000000142857142857:0.00000000187617260788
*** Initializing Memory Statistics ***
GPGPU-Sim uArch: interconnect node map (shaderID+MemID to icntID)
GPGPU-Sim uArch: Memory nodes ID start from index: 15
GPGPU-Sim uArch:    0   1   2   3   4
GPGPU-Sim uArch:    5   6   7   8   9
GPGPU-Sim uArch:   10  11  12  13  14
GPGPU-Sim uArch:   15  16  17  18  19
GPGPU-Sim uArch:   20  21  22  23  24
GPGPU-Sim uArch:   25  26
GPGPU-Sim uArch: interconnect node reverse map (icntID to shaderID+MemID)
GPGPU-Sim uArch: Memory nodes start from ID: 15
GPGPU-Sim uArch:    0   1   2   3   4
GPGPU-Sim uArch:    5   6   7   8   9
GPGPU-Sim uArch:   10  11  12  13  14
GPGPU-Sim uArch:   15  16  17  18  19
GPGPU-Sim uArch:   20  21  22  23  24
GPGPU-Sim uArch:   25  26
117cce9338df41a7dbf6e9f6cfe2a5a3  /home/bing/cu_learn/im2col/src/bin/main
GPGPU-Sim uArch: performance model initialization complete.
GPGPU-Sim PTX: __cudaRegisterFatBinary, fat_cubin_handle = 1, filename=/home/bing/cu_learn/im2col/src/col2im.cu
self exe links to: /home/bing/cu_learn/im2col/src/bin/main
Running md5sum using "md5sum /home/bing/cu_learn/im2col/src/bin/main "
Running cuobjdump using "$CUDA_INSTALL_PATH/bin/cuobjdump -ptx -elf -sass /home/bing/cu_learn/im2col/src/bin/main > _cuobjdump_complete_output_x7oIuZ"
Parsing file _cuobjdump_complete_output_x7oIuZ
######### cuobjdump parser ########
## Adding new section ELF
Adding arch: sm_20
Adding identifier: /home/bing/cu_learn/im2col/src/col2im.cu
## Adding new section PTX
Adding ptx filename: _cuobjdump_1.ptx
Adding arch: sm_20
Adding identifier: /home/bing/cu_learn/im2col/src/col2im.cu
## Adding new section ELF
Adding arch: sm_20
Adding identifier: /home/bing/cu_learn/im2col/src/cuda_conv.cu
## Adding new section PTX
Adding ptx filename: _cuobjdump_2.ptx
Adding arch: sm_20
Adding identifier: /home/bing/cu_learn/im2col/src/cuda_conv.cu
## Adding new section ELF
Adding arch: sm_20
Adding identifier: /home/bing/cu_learn/im2col/src/fc.cu
## Adding new section PTX
Adding ptx filename: _cuobjdump_3.ptx
Adding arch: sm_20
Adding identifier: /home/bing/cu_learn/im2col/src/fc.cu
## Adding new section ELF
Adding arch: sm_20
Adding identifier: /home/bing/cu_learn/im2col/src/im2col.cu
## Adding new section PTX
Adding ptx filename: _cuobjdump_4.ptx
Adding arch: sm_20
Adding identifier: /home/bing/cu_learn/im2col/src/im2col.cu
## Adding new section ELF
Adding arch: sm_20
Adding identifier: /home/bing/cu_learn/im2col/src/pooling.cu
## Adding new section PTX
Adding ptx filename: _cuobjdump_5.ptx
Adding arch: sm_20
Adding identifier: /home/bing/cu_learn/im2col/src/pooling.cu
## Adding new section ELF
Adding arch: sm_20
Adding identifier: /home/bing/cu_learn/im2col/src/sigmoid.cu
## Adding new section PTX
Adding ptx filename: _cuobjdump_6.ptx
Adding arch: sm_20
Adding identifier: /home/bing/cu_learn/im2col/src/sigmoid.cu
Done parsing!!!
GPGPU-Sim PTX: __cudaRegisterFunction _Z17col2im_gpu_kernelIdEviPKT_iiiiiiiiPS0_ : hostFun 0x0x401580, fat_cubin_handle = 1
GPGPU-Sim PTX: instruction assembly for function '_Z17col2im_gpu_kernelIfEviPKT_iiiiiiiiPS0_'...   done.
GPGPU-Sim PTX: finding reconvergence points for '_Z17col2im_gpu_kernelIfEviPKT_iiiiiiiiPS0_'...
GPGPU-Sim PTX: Finding dominators for '_Z17col2im_gpu_kernelIfEviPKT_iiiiiiiiPS0_'...
GPGPU-Sim PTX: Finding immediate dominators for '_Z17col2im_gpu_kernelIfEviPKT_iiiiiiiiPS0_'...
GPGPU-Sim PTX: Finding postdominators for '_Z17col2im_gpu_kernelIfEviPKT_iiiiiiiiPS0_'...
GPGPU-Sim PTX: Finding immediate postdominators for '_Z17col2im_gpu_kernelIfEviPKT_iiiiiiiiPS0_'...
GPGPU-Sim PTX: pre-decoding instructions for '_Z17col2im_gpu_kernelIfEviPKT_iiiiiiiiPS0_'...
GPGPU-Sim PTX: reconvergence points for _Z17col2im_gpu_kernelIfEviPKT_iiiiiiiiPS0_...
GPGPU-Sim PTX:  1 (potential) branch divergence @  PC=0x040 (_1.ptx:79) @%p1 bra $Lt_0_4866;
GPGPU-Sim PTX:    immediate post dominator      @  PC=0x338 (_1.ptx:195) exit;
GPGPU-Sim PTX:  2 (potential) branch divergence @  PC=0x0d0 (_1.ptx:99) @%p2 bra $Lt_0_5890;
GPGPU-Sim PTX:    immediate post dominator      @  PC=0x100 (_1.ptx:108) div.s32 %r21, %r6, %r15;
GPGPU-Sim PTX:  3 (potential) branch divergence @  PC=0x0f0 (_1.ptx:104) bra.uni $Lt_0_5634;
GPGPU-Sim PTX:    immediate post dominator      @  PC=0x100 (_1.ptx:108) div.s32 %r21, %r6, %r15;
GPGPU-Sim PTX:  4 (potential) branch divergence @  PC=0x120 (_1.ptx:112) @%p3 bra $Lt_0_6402;
GPGPU-Sim PTX:    immediate post dominator      @  PC=0x150 (_1.ptx:122) mov.s32 %r27, %r26;
GPGPU-Sim PTX:  5 (potential) branch divergence @  PC=0x140 (_1.ptx:117) bra.uni $Lt_0_6146;
GPGPU-Sim PTX:    immediate post dominator      @  PC=0x150 (_1.ptx:122) mov.s32 %r27, %r26;
GPGPU-Sim PTX:  6 (potential) branch divergence @  PC=0x178 (_1.ptx:127) @%p4 bra $Lt_0_9218;
GPGPU-Sim PTX:    immediate post dominator      @  PC=0x310 (_1.ptx:188) st.global.f32 [%rd5+0], %f1;
GPGPU-Sim PTX:  7 (potential) branch divergence @  PC=0x250 (_1.ptx:157) @!%p5 bra $Lt_0_7426;
GPGPU-Sim PTX:    immediate post dominator      @  PC=0x2e8 (_1.ptx:180) add.s32 %r27, %r27, 1;
GPGPU-Sim PTX:  8 (potential) branch divergence @  PC=0x2e0 (_1.ptx:178) @%p6 bra $Lt_0_7938;
GPGPU-Sim PTX:    immediate post dominator      @  PC=0x2e8 (_1.ptx:180) add.s32 %r27, %r27, 1;
GPGPU-Sim PTX:  9 (potential) branch divergence @  PC=0x2f8 (_1.ptx:182) @%p7 bra $Lt_0_7170;
GPGPU-Sim PTX:    immediate post dominator      @  PC=0x300 (_1.ptx:183) bra.uni $Lt_0_6658;
GPGPU-Sim PTX: 10 (potential) branch divergence @  PC=0x300 (_1.ptx:183) bra.uni $Lt_0_6658;
GPGPU-Sim PTX:    immediate post dominator      @  PC=0x310 (_1.ptx:188) st.global.f32 [%rd5+0], %f1;
GPGPU-Sim PTX: 11 (potential) branch divergence @  PC=0x330 (_1.ptx:192) @%p8 bra $Lt_0_5378;
GPGPU-Sim PTX:    immediate post dominator      @  PC=0x338 (_1.ptx:195) exit;
GPGPU-Sim PTX: ... end of reconvergence points for _Z17col2im_gpu_kernelIfEviPKT_iiiiiiiiPS0_
GPGPU-Sim PTX: ... done pre-decoding instructions for '_Z17col2im_gpu_kernelIfEviPKT_iiiiiiiiPS0_'.
GPGPU-Sim PTX: instruction assembly for function '_Z17col2im_gpu_kernelIdEviPKT_iiiiiiiiPS0_'...   done.
GPGPU-Sim PTX: finding reconvergence points for '_Z17col2im_gpu_kernelIdEviPKT_iiiiiiiiPS0_'...
GPGPU-Sim PTX: Finding dominators for '_Z17col2im_gpu_kernelIdEviPKT_iiiiiiiiPS0_'...
GPGPU-Sim PTX: Finding immediate dominators for '_Z17col2im_gpu_kernelIdEviPKT_iiiiiiiiPS0_'...
GPGPU-Sim PTX: Finding postdominators for '_Z17col2im_gpu_kernelIdEviPKT_iiiiiiiiPS0_'...
GPGPU-Sim PTX: Finding immediate postdominators for '_Z17col2im_gpu_kernelIdEviPKT_iiiiiiiiPS0_'...
GPGPU-Sim PTX: pre-decoding instructions for '_Z17col2im_gpu_kernelIdEviPKT_iiiiiiiiPS0_'...
GPGPU-Sim PTX: reconvergence points for _Z17col2im_gpu_kernelIdEviPKT_iiiiiiiiPS0_...
GPGPU-Sim PTX:  1 (potential) branch divergence @  PC=0x380 (_1.ptx:227) @%p1 bra $Lt_1_4866;
GPGPU-Sim PTX:    immediate post dominator      @  PC=0x678 (_1.ptx:343) exit;
GPGPU-Sim PTX:  2 (potential) branch divergence @  PC=0x410 (_1.ptx:247) @%p2 bra $Lt_1_5890;
GPGPU-Sim PTX:    immediate post dominator      @  PC=0x440 (_1.ptx:256) div.s32 %r21, %r6, %r15;
GPGPU-Sim PTX:  3 (potential) branch divergence @  PC=0x430 (_1.ptx:252) bra.uni $Lt_1_5634;
GPGPU-Sim PTX:    immediate post dominator      @  PC=0x440 (_1.ptx:256) div.s32 %r21, %r6, %r15;
GPGPU-Sim PTX:  4 (potential) branch divergence @  PC=0x460 (_1.ptx:260) @%p3 bra $Lt_1_6402;
GPGPU-Sim PTX:    immediate post dominator      @  PC=0x490 (_1.ptx:270) mov.s32 %r27, %r26;
GPGPU-Sim PTX:  5 (potential) branch divergence @  PC=0x480 (_1.ptx:265) bra.uni $Lt_1_6146;
GPGPU-Sim PTX:    immediate post dominator      @  PC=0x490 (_1.ptx:270) mov.s32 %r27, %r26;
GPGPU-Sim PTX:  6 (potential) branch divergence @  PC=0x4b8 (_1.ptx:275) @%p4 bra $Lt_1_9218;
GPGPU-Sim PTX:    immediate post dominator      @  PC=0x650 (_1.ptx:336) st.global.f64 [%rd5+0], %fd1;
GPGPU-Sim PTX:  7 (potential) branch divergence @  PC=0x590 (_1.ptx:305) @!%p5 bra $Lt_1_7426;
GPGPU-Sim PTX:    immediate post dominator      @  PC=0x628 (_1.ptx:328) add.s32 %r27, %r27, 1;
GPGPU-Sim PTX:  8 (potential) branch divergence @  PC=0x620 (_1.ptx:326) @%p6 bra $Lt_1_7938;
GPGPU-Sim PTX:    immediate post dominator      @  PC=0x628 (_1.ptx:328) add.s32 %r27, %r27, 1;
GPGPU-Sim PTX:  9 (potential) branch divergence @  PC=0x638 (_1.ptx:330) @%p7 bra $Lt_1_7170;
GPGPU-Sim PTX:    immediate post dominator      @  PC=0x640 (_1.ptx:331) bra.uni $Lt_1_6658;
GPGPU-Sim PTX: 10 (potential) branch divergence @  PC=0x640 (_1.ptx:331) bra.uni $Lt_1_6658;
GPGPU-Sim PTX:    immediate post dominator      @  PC=0x650 (_1.ptx:336) st.global.f64 [%rd5+0], %fd1;
GPGPU-Sim PTX: 11 (potential) branch divergence @  PC=0x670 (_1.ptx:340) @%p8 bra $Lt_1_5378;
GPGPU-Sim PTX:    immediate post dominator      @  PC=0x678 (_1.ptx:343) exit;
GPGPU-Sim PTX: ... end of reconvergence points for _Z17col2im_gpu_kernelIdEviPKT_iiiiiiiiPS0_
GPGPU-Sim PTX: ... done pre-decoding instructions for '_Z17col2im_gpu_kernelIdEviPKT_iiiiiiiiPS0_'.
GPGPU-Sim PTX: finished parsing EMBEDDED .ptx file _1.ptx
Adding _cuobjdump_1.ptx with cubin handle 1
GPGPU-Sim PTX: extracting embedded .ptx to temporary file "_ptx_kRxyrA"
Running: cat _ptx_kRxyrA | sed 's/.version 1.5/.version 1.4/' | sed 's/, texmode_independent//' | sed 's/\(\.extern \.const\[1\] .b8 \w\+\)\[\]/\1\[1\]/' | sed 's/const\[.\]/const\[0\]/g' > _ptx2_by4rob
GPGPU-Sim PTX: generating ptxinfo using "$CUDA_INSTALL_PATH/bin/ptxas --gpu-name=sm_20 -v _ptx2_by4rob --output-file  /dev/null 2> _ptx_kRxyrAinfo"
GPGPU-Sim PTX: Kernel '_Z17col2im_gpu_kernelIdEviPKT_iiiiiiiiPS0_' : regs=23, lmem=0, smem=0, cmem=88
GPGPU-Sim PTX: Kernel '_Z17col2im_gpu_kernelIfEviPKT_iiiiiiiiPS0_' : regs=21, lmem=0, smem=0, cmem=88
GPGPU-Sim PTX: removing ptxinfo using "rm -f _ptx_kRxyrA _ptx2_by4rob _ptx_kRxyrAinfo"
GPGPU-Sim PTX: loading globals with explicit initializers... 
GPGPU-Sim PTX: finished loading globals (0 bytes total).
GPGPU-Sim PTX: loading constants with explicit initializers...  done.
GPGPU-Sim PTX: __cudaRegisterFunction _Z17col2im_gpu_kernelIfEviPKT_iiiiiiiiPS0_ : hostFun 0x0x401590, fat_cubin_handle = 1
GPGPU-Sim PTX: __cudaRegisterFatBinary, fat_cubin_handle = 2, filename=/home/bing/cu_learn/im2col/src/cuda_conv.cu
GPGPU-Sim PTX: __cudaRegisterFatBinary, fat_cubin_handle = 3, filename=/home/bing/cu_learn/im2col/src/fc.cu
GPGPU-Sim PTX: __cudaRegisterFunction _Z12BiasBackwardIfEviiPKT_PS0_ : hostFun 0x0x404350, fat_cubin_handle = 3
GPGPU-Sim PTX: instruction assembly for function '_Z13fc_gpu_kernelPfS_S_iii'...   done.
GPGPU-Sim PTX: finding reconvergence points for '_Z13fc_gpu_kernelPfS_S_iii'...
GPGPU-Sim PTX: Finding dominators for '_Z13fc_gpu_kernelPfS_S_iii'...
GPGPU-Sim PTX: Finding immediate dominators for '_Z13fc_gpu_kernelPfS_S_iii'...
GPGPU-Sim PTX: Finding postdominators for '_Z13fc_gpu_kernelPfS_S_iii'...
GPGPU-Sim PTX: Finding immediate postdominators for '_Z13fc_gpu_kernelPfS_S_iii'...
GPGPU-Sim PTX: pre-decoding instructions for '_Z13fc_gpu_kernelPfS_S_iii'...
GPGPU-Sim PTX: reconvergence points for _Z13fc_gpu_kernelPfS_S_iii...
GPGPU-Sim PTX:  1 (potential) branch divergence @  PC=0x718 (_3.ptx:84) @%p1 bra $Lt_0_2306;
GPGPU-Sim PTX:    immediate post dominator      @  PC=0x838 (_3.ptx:126) exit;
GPGPU-Sim PTX:  2 (potential) branch divergence @  PC=0x738 (_3.ptx:88) @%p2 bra $Lt_0_2818;
GPGPU-Sim PTX:    immediate post dominator      @  PC=0x838 (_3.ptx:126) exit;
GPGPU-Sim PTX:  3 (potential) branch divergence @  PC=0x830 (_3.ptx:122) @%p3 bra $Lt_0_3330;
GPGPU-Sim PTX:    immediate post dominator      @  PC=0x838 (_3.ptx:126) exit;
GPGPU-Sim PTX: ... end of reconvergence points for _Z13fc_gpu_kernelPfS_S_iii
GPGPU-Sim PTX: ... done pre-decoding instructions for '_Z13fc_gpu_kernelPfS_S_iii'.
GPGPU-Sim PTX: instruction assembly for function '_Z17convdw_gpu_kernelPfS_S_iii'...   done.
GPGPU-Sim PTX: finding reconvergence points for '_Z17convdw_gpu_kernelPfS_S_iii'...
GPGPU-Sim PTX: Finding dominators for '_Z17convdw_gpu_kernelPfS_S_iii'...
GPGPU-Sim PTX: Finding immediate dominators for '_Z17convdw_gpu_kernelPfS_S_iii'...
GPGPU-Sim PTX: Finding postdominators for '_Z17convdw_gpu_kernelPfS_S_iii'...
GPGPU-Sim PTX: Finding immediate postdominators for '_Z17convdw_gpu_kernelPfS_S_iii'...
GPGPU-Sim PTX: pre-decoding instructions for '_Z17convdw_gpu_kernelPfS_S_iii'...
GPGPU-Sim PTX: reconvergence points for _Z17convdw_gpu_kernelPfS_S_iii...
GPGPU-Sim PTX:  1 (potential) branch divergence @  PC=0x8d8 (_3.ptx:163) @%p1 bra $Lt_1_2306;
GPGPU-Sim PTX:    immediate post dominator      @  PC=0x9f8 (_3.ptx:205) exit;
GPGPU-Sim PTX:  2 (potential) branch divergence @  PC=0x8f8 (_3.ptx:167) @%p2 bra $Lt_1_2818;
GPGPU-Sim PTX:    immediate post dominator      @  PC=0x9f8 (_3.ptx:205) exit;
GPGPU-Sim PTX:  3 (potential) branch divergence @  PC=0x9f0 (_3.ptx:201) @%p3 bra $Lt_1_3330;
GPGPU-Sim PTX:    immediate post dominator      @  PC=0x9f8 (_3.ptx:205) exit;
GPGPU-Sim PTX: ... end of reconvergence points for _Z17convdw_gpu_kernelPfS_S_iii
GPGPU-Sim PTX: ... done pre-decoding instructions for '_Z17convdw_gpu_kernelPfS_S_iii'.
GPGPU-Sim PTX: instruction assembly for function '_Z17convdx_gpu_kernelPfS_S_iii'...   done.
GPGPU-Sim PTX: finding reconvergence points for '_Z17convdx_gpu_kernelPfS_S_iii'...
GPGPU-Sim PTX: Finding dominators for '_Z17convdx_gpu_kernelPfS_S_iii'...
GPGPU-Sim PTX: Finding immediate dominators for '_Z17convdx_gpu_kernelPfS_S_iii'...
GPGPU-Sim PTX: Finding postdominators for '_Z17convdx_gpu_kernelPfS_S_iii'...
GPGPU-Sim PTX: Finding immediate postdominators for '_Z17convdx_gpu_kernelPfS_S_iii'...
GPGPU-Sim PTX: pre-decoding instructions for '_Z17convdx_gpu_kernelPfS_S_iii'...
GPGPU-Sim PTX: reconvergence points for _Z17convdx_gpu_kernelPfS_S_iii...
GPGPU-Sim PTX:  1 (potential) branch divergence @  PC=0xa98 (_3.ptx:242) @%p1 bra $Lt_2_2306;
GPGPU-Sim PTX:    immediate post dominator      @  PC=0xbb0 (_3.ptx:283) exit;
GPGPU-Sim PTX:  2 (potential) branch divergence @  PC=0xab8 (_3.ptx:246) @%p2 bra $Lt_2_2818;
GPGPU-Sim PTX:    immediate post dominator      @  PC=0xbb0 (_3.ptx:283) exit;
GPGPU-Sim PTX:  3 (potential) branch divergence @  PC=0xba8 (_3.ptx:279) @%p3 bra $Lt_2_3330;
GPGPU-Sim PTX:    immediate post dominator      @  PC=0xbb0 (_3.ptx:283) exit;
GPGPU-Sim PTX: ... end of reconvergence points for _Z17convdx_gpu_kernelPfS_S_iii
GPGPU-Sim PTX: ... done pre-decoding instructions for '_Z17convdx_gpu_kernelPfS_S_iii'.
GPGPU-Sim PTX: instruction assembly for function '_Z11BiasForwardIfEvPT_S1_iii'...   done.
GPGPU-Sim PTX: finding reconvergence points for '_Z11BiasForwardIfEvPT_S1_iii'...
GPGPU-Sim PTX: Finding dominators for '_Z11BiasForwardIfEvPT_S1_iii'...
GPGPU-Sim PTX: Finding immediate dominators for '_Z11BiasForwardIfEvPT_S1_iii'...
GPGPU-Sim PTX: Finding postdominators for '_Z11BiasForwardIfEvPT_S1_iii'...
GPGPU-Sim PTX: Finding immediate postdominators for '_Z11BiasForwardIfEvPT_S1_iii'...
GPGPU-Sim PTX: pre-decoding instructions for '_Z11BiasForwardIfEvPT_S1_iii'...
GPGPU-Sim PTX: reconvergence points for _Z11BiasForwardIfEvPT_S1_iii...
GPGPU-Sim PTX:  1 (potential) branch divergence @  PC=0xc50 (_3.ptx:319) @%p1 bra $Lt_3_1282;
GPGPU-Sim PTX:    immediate post dominator      @  PC=0xcc8 (_3.ptx:337) exit;
GPGPU-Sim PTX: ... end of reconvergence points for _Z11BiasForwardIfEvPT_S1_iii
GPGPU-Sim PTX: ... done pre-decoding instructions for '_Z11BiasForwardIfEvPT_S1_iii'.
GPGPU-Sim PTX: instruction assembly for function '_Z12BiasBackwardIfEviiPKT_PS0_'...   done.
GPGPU-Sim PTX: finding reconvergence points for '_Z12BiasBackwardIfEviiPKT_PS0_'...
GPGPU-Sim PTX: Finding dominators for '_Z12BiasBackwardIfEviiPKT_PS0_'...
GPGPU-Sim PTX: Finding immediate dominators for '_Z12BiasBackwardIfEviiPKT_PS0_'...
GPGPU-Sim PTX: Finding postdominators for '_Z12BiasBackwardIfEviiPKT_PS0_'...
GPGPU-Sim PTX: Finding immediate postdominators for '_Z12BiasBackwardIfEviiPKT_PS0_'...
GPGPU-Sim PTX: pre-decoding instructions for '_Z12BiasBackwardIfEviiPKT_PS0_'...
GPGPU-Sim PTX: reconvergence points for _Z12BiasBackwardIfEviiPKT_PS0_...
GPGPU-Sim PTX:  1 (potential) branch divergence @  PC=0xd10 (_3.ptx:362) @%p1 bra $Lt_4_1282;
GPGPU-Sim PTX:    immediate post dominator      @  PC=0xde8 (_3.ptx:394) exit;
GPGPU-Sim PTX:  2 (potential) branch divergence @  PC=0xde0 (_3.ptx:391) @%p2 bra $Lt_4_1794;
GPGPU-Sim PTX:    immediate post dominator      @  PC=0xde8 (_3.ptx:394) exit;
GPGPU-Sim PTX: ... end of reconvergence points for _Z12BiasBackwardIfEviiPKT_PS0_
GPGPU-Sim PTX: ... done pre-decoding instructions for '_Z12BiasBackwardIfEviiPKT_PS0_'.
GPGPU-Sim PTX: finished parsing EMBEDDED .ptx file _3.ptx
Adding _cuobjdump_3.ptx with cubin handle 3
GPGPU-Sim PTX: extracting embedded .ptx to temporary file "_ptx_t0IYDM"
Running: cat _ptx_t0IYDM | sed 's/.version 1.5/.version 1.4/' | sed 's/, texmode_independent//' | sed 's/\(\.extern \.const\[1\] .b8 \w\+\)\[\]/\1\[1\]/' | sed 's/const\[.\]/const\[0\]/g' > _ptx2_ng6xTn
GPGPU-Sim PTX: generating ptxinfo using "$CUDA_INSTALL_PATH/bin/ptxas --gpu-name=sm_20 -v _ptx2_ng6xTn --output-file  /dev/null 2> _ptx_t0IYDMinfo"
GPGPU-Sim PTX: Kernel '_Z12BiasBackwardIfEviiPKT_PS0_' : regs=13, lmem=0, smem=0, cmem=56
GPGPU-Sim PTX: Kernel '_Z11BiasForwardIfEvPT_S1_iii' : regs=8, lmem=0, smem=0, cmem=60
GPGPU-Sim PTX: Kernel '_Z17convdx_gpu_kernelPfS_S_iii' : regs=12, lmem=0, smem=0, cmem=68
GPGPU-Sim PTX: Kernel '_Z17convdw_gpu_kernelPfS_S_iii' : regs=15, lmem=0, smem=0, cmem=68
GPGPU-Sim PTX: Kernel '_Z13fc_gpu_kernelPfS_S_iii' : regs=14, lmem=0, smem=0, cmem=68
GPGPU-Sim PTX: removing ptxinfo using "rm -f _ptx_t0IYDM _ptx2_ng6xTn _ptx_t0IYDMinfo"
GPGPU-Sim PTX: loading globals with explicit initializers... 
GPGPU-Sim PTX: finished loading globals (0 bytes total).
GPGPU-Sim PTX: loading constants with explicit initializers...  done.
GPGPU-Sim PTX: __cudaRegisterFunction _Z11BiasForwardIfEvPT_S1_iii : hostFun 0x0x404340, fat_cubin_handle = 3
GPGPU-Sim PTX: __cudaRegisterFunction _Z17convdx_gpu_kernelPfS_S_iii : hostFun 0x0x402b50, fat_cubin_handle = 3
GPGPU-Sim PTX: __cudaRegisterFunction _Z17convdw_gpu_kernelPfS_S_iii : hostFun 0x0x402c40, fat_cubin_handle = 3
GPGPU-Sim PTX: __cudaRegisterFunction _Z13fc_gpu_kernelPfS_S_iii : hostFun 0x0x402d30, fat_cubin_handle = 3
GPGPU-Sim PTX: __cudaRegisterFatBinary, fat_cubin_handle = 4, filename=/home/bing/cu_learn/im2col/src/im2col.cu
GPGPU-Sim PTX: __cudaRegisterFunction _Z17im2col_gpu_kernelIdEviPKT_iiiiiiiPS0_ : hostFun 0x0x404b20, fat_cubin_handle = 4
GPGPU-Sim PTX: instruction assembly for function '_Z17im2col_gpu_kernelIfEviPKT_iiiiiiiPS0_'...   done.
GPGPU-Sim PTX: finding reconvergence points for '_Z17im2col_gpu_kernelIfEviPKT_iiiiiiiPS0_'...
GPGPU-Sim PTX: Finding dominators for '_Z17im2col_gpu_kernelIfEviPKT_iiiiiiiPS0_'...
GPGPU-Sim PTX: Finding immediate dominators for '_Z17im2col_gpu_kernelIfEviPKT_iiiiiiiPS0_'...
GPGPU-Sim PTX: Finding postdominators for '_Z17im2col_gpu_kernelIfEviPKT_iiiiiiiPS0_'...
GPGPU-Sim PTX: Finding immediate postdominators for '_Z17im2col_gpu_kernelIfEviPKT_iiiiiiiPS0_'...
GPGPU-Sim PTX: pre-decoding instructions for '_Z17im2col_gpu_kernelIfEviPKT_iiiiiiiPS0_'...
GPGPU-Sim PTX: reconvergence points for _Z17im2col_gpu_kernelIfEviPKT_iiiiiiiPS0_...
GPGPU-Sim PTX:  1 (potential) branch divergence @  PC=0xe30 (_4.ptx:78) @%p1 bra $Lt_0_6146;
GPGPU-Sim PTX:    immediate post dominator      @  PC=0x10d0 (_4.ptx:177) exit;
GPGPU-Sim PTX:  2 (potential) branch divergence @  PC=0xee0 (_4.ptx:103) @!%p2 bra $Lt_0_6914;
GPGPU-Sim PTX:    immediate post dominator      @  PC=0x10b8 (_4.ptx:172) add.u32 %r6, %r6, %r11;
GPGPU-Sim PTX:  3 (potential) branch divergence @  PC=0xfd8 (_4.ptx:139) @!%p3 bra $Lt_0_10242;
GPGPU-Sim PTX:    immediate post dominator      @  PC=0x1060 (_4.ptx:160) st.global.f32 [%rd12+0], %f1;
GPGPU-Sim PTX:  4 (potential) branch divergence @  PC=0xff8 (_4.ptx:143) @%p4 bra $Lt_0_10242;
GPGPU-Sim PTX:    immediate post dominator      @  PC=0x1060 (_4.ptx:160) st.global.f32 [%rd12+0], %f1;
GPGPU-Sim PTX:  5 (potential) branch divergence @  PC=0x1008 (_4.ptx:145) @%p5 bra $Lt_0_10242;
GPGPU-Sim PTX:    immediate post dominator      @  PC=0x1060 (_4.ptx:160) st.global.f32 [%rd12+0], %f1;
GPGPU-Sim PTX:  6 (potential) branch divergence @  PC=0x1018 (_4.ptx:147) @%p6 bra $Lt_0_10242;
GPGPU-Sim PTX:    immediate post dominator      @  PC=0x1060 (_4.ptx:160) st.global.f32 [%rd12+0], %f1;
GPGPU-Sim PTX:  7 (potential) branch divergence @  PC=0x1050 (_4.ptx:155) bra.uni $L_0_4866;
GPGPU-Sim PTX:    immediate post dominator      @  PC=0x1060 (_4.ptx:160) st.global.f32 [%rd12+0], %f1;
GPGPU-Sim PTX:  8 (potential) branch divergence @  PC=0x1080 (_4.ptx:164) @%p7 bra $Lt_0_8194;
GPGPU-Sim PTX:    immediate post dominator      @  PC=0x1088 (_4.ptx:165) mul.lo.u64 %rd16, %rd10, %rd9;
GPGPU-Sim PTX:  9 (potential) branch divergence @  PC=0x10b0 (_4.ptx:170) @%p8 bra $Lt_0_7426;
GPGPU-Sim PTX:    immediate post dominator      @  PC=0x10b8 (_4.ptx:172) add.u32 %r6, %r6, %r11;
GPGPU-Sim PTX: 10 (potential) branch divergence @  PC=0x10c8 (_4.ptx:174) @%p9 bra $Lt_0_6658;
GPGPU-Sim PTX:    immediate post dominator      @  PC=0x10d0 (_4.ptx:177) exit;
GPGPU-Sim PTX: ... end of reconvergence points for _Z17im2col_gpu_kernelIfEviPKT_iiiiiiiPS0_
GPGPU-Sim PTX: ... done pre-decoding instructions for '_Z17im2col_gpu_kernelIfEviPKT_iiiiiiiPS0_'.
GPGPU-Sim PTX: instruction assembly for function '_Z17im2col_gpu_kernelIdEviPKT_iiiiiiiPS0_'...   done.
GPGPU-Sim PTX: finding reconvergence points for '_Z17im2col_gpu_kernelIdEviPKT_iiiiiiiPS0_'...
GPGPU-Sim PTX: Finding dominators for '_Z17im2col_gpu_kernelIdEviPKT_iiiiiiiPS0_'...
GPGPU-Sim PTX: Finding immediate dominators for '_Z17im2col_gpu_kernelIdEviPKT_iiiiiiiPS0_'...
GPGPU-Sim PTX: Finding postdominators for '_Z17im2col_gpu_kernelIdEviPKT_iiiiiiiPS0_'...
GPGPU-Sim PTX: Finding immediate postdominators for '_Z17im2col_gpu_kernelIdEviPKT_iiiiiiiPS0_'...
GPGPU-Sim PTX: pre-decoding instructions for '_Z17im2col_gpu_kernelIdEviPKT_iiiiiiiPS0_'...
GPGPU-Sim PTX: reconvergence points for _Z17im2col_gpu_kernelIdEviPKT_iiiiiiiPS0_...
GPGPU-Sim PTX:  1 (potential) branch divergence @  PC=0x1118 (_4.ptx:208) @%p1 bra $Lt_1_6146;
GPGPU-Sim PTX:    immediate post dominator      @  PC=0x13b8 (_4.ptx:307) exit;
GPGPU-Sim PTX:  2 (potential) branch divergence @  PC=0x11c8 (_4.ptx:233) @!%p2 bra $Lt_1_6914;
GPGPU-Sim PTX:    immediate post dominator      @  PC=0x13a0 (_4.ptx:302) add.u32 %r6, %r6, %r11;
GPGPU-Sim PTX:  3 (potential) branch divergence @  PC=0x12c0 (_4.ptx:269) @!%p3 bra $Lt_1_10242;
GPGPU-Sim PTX:    immediate post dominator      @  PC=0x1348 (_4.ptx:290) st.global.f64 [%rd12+0], %fd1;
GPGPU-Sim PTX:  4 (potential) branch divergence @  PC=0x12e0 (_4.ptx:273) @%p4 bra $Lt_1_10242;
GPGPU-Sim PTX:    immediate post dominator      @  PC=0x1348 (_4.ptx:290) st.global.f64 [%rd12+0], %fd1;
GPGPU-Sim PTX:  5 (potential) branch divergence @  PC=0x12f0 (_4.ptx:275) @%p5 bra $Lt_1_10242;
GPGPU-Sim PTX:    immediate post dominator      @  PC=0x1348 (_4.ptx:290) st.global.f64 [%rd12+0], %fd1;
GPGPU-Sim PTX:  6 (potential) branch divergence @  PC=0x1300 (_4.ptx:277) @%p6 bra $Lt_1_10242;
GPGPU-Sim PTX:    immediate post dominator      @  PC=0x1348 (_4.ptx:290) st.global.f64 [%rd12+0], %fd1;
GPGPU-Sim PTX:  7 (potential) branch divergence @  PC=0x1338 (_4.ptx:285) bra.uni $L_1_4866;
GPGPU-Sim PTX:    immediate post dominator      @  PC=0x1348 (_4.ptx:290) st.global.f64 [%rd12+0], %fd1;
GPGPU-Sim PTX:  8 (potential) branch divergence @  PC=0x1368 (_4.ptx:294) @%p7 bra $Lt_1_8194;
GPGPU-Sim PTX:    immediate post dominator      @  PC=0x1370 (_4.ptx:295) mul.lo.u64 %rd16, %rd10, %rd9;
GPGPU-Sim PTX:  9 (potential) branch divergence @  PC=0x1398 (_4.ptx:300) @%p8 bra $Lt_1_7426;
GPGPU-Sim PTX:    immediate post dominator      @  PC=0x13a0 (_4.ptx:302) add.u32 %r6, %r6, %r11;
GPGPU-Sim PTX: 10 (potential) branch divergence @  PC=0x13b0 (_4.ptx:304) @%p9 bra $Lt_1_6658;
GPGPU-Sim PTX:    immediate post dominator      @  PC=0x13b8 (_4.ptx:307) exit;
GPGPU-Sim PTX: ... end of reconvergence points for _Z17im2col_gpu_kernelIdEviPKT_iiiiiiiPS0_
GPGPU-Sim PTX: ... done pre-decoding instructions for '_Z17im2col_gpu_kernelIdEviPKT_iiiiiiiPS0_'.
GPGPU-Sim PTX: finished parsing EMBEDDED .ptx file _4.ptx
Adding _cuobjdump_4.ptx with cubin handle 4
GPGPU-Sim PTX: extracting embedded .ptx to temporary file "_ptx_BzPBkZ"
Running: cat _ptx_BzPBkZ | sed 's/.version 1.5/.version 1.4/' | sed 's/, texmode_independent//' | sed 's/\(\.extern \.const\[1\] .b8 \w\+\)\[\]/\1\[1\]/' | sed 's/const\[.\]/const\[0\]/g' > _ptx2_XpOILA
GPGPU-Sim PTX: generating ptxinfo using "$CUDA_INSTALL_PATH/bin/ptxas --gpu-name=sm_20 -v _ptx2_XpOILA --output-file  /dev/null 2> _ptx_BzPBkZinfo"
GPGPU-Sim PTX: Kernel '_Z17im2col_gpu_kernelIdEviPKT_iiiiiiiPS0_' : regs=23, lmem=0, smem=0, cmem=88
GPGPU-Sim PTX: Kernel '_Z17im2col_gpu_kernelIfEviPKT_iiiiiiiPS0_' : regs=21, lmem=0, smem=0, cmem=88
GPGPU-Sim PTX: removing ptxinfo using "rm -f _ptx_BzPBkZ _ptx2_XpOILA _ptx_BzPBkZinfo"
GPGPU-Sim PTX: loading globals with explicit initializers... 
GPGPU-Sim PTX: finished loading globals (0 bytes total).
GPGPU-Sim PTX: loading constants with explicit initializers...  done.
GPGPU-Sim PTX: __cudaRegisterFunction _Z17im2col_gpu_kernelIfEviPKT_iiiiiiiPS0_ : hostFun 0x0x404b30, fat_cubin_handle = 4
GPGPU-Sim PTX: __cudaRegisterFatBinary, fat_cubin_handle = 5, filename=/home/bing/cu_learn/im2col/src/pooling.cu
GPGPU-Sim PTX: __cudaRegisterFunction _Z14MaxPoolForwardIfEviPKT_iiiiiiiiPS0_Pi : hostFun 0x0x405ad0, fat_cubin_handle = 5
GPGPU-Sim PTX: instruction assembly for function '_Z15MaxPoolBackwardIfEviPKT_PKiiiiiiiiiiiiPS0_'...   done.
GPGPU-Sim PTX: finding reconvergence points for '_Z15MaxPoolBackwardIfEviPKT_PKiiiiiiiiiiiiPS0_'...
GPGPU-Sim PTX: Finding dominators for '_Z15MaxPoolBackwardIfEviPKT_PKiiiiiiiiiiiiPS0_'...
GPGPU-Sim PTX: Finding immediate dominators for '_Z15MaxPoolBackwardIfEviPKT_PKiiiiiiiiiiiiPS0_'...
GPGPU-Sim PTX: Finding postdominators for '_Z15MaxPoolBackwardIfEviPKT_PKiiiiiiiiiiiiPS0_'...
GPGPU-Sim PTX: Finding immediate postdominators for '_Z15MaxPoolBackwardIfEviPKT_PKiiiiiiiiiiiiPS0_'...
GPGPU-Sim PTX: pre-decoding instructions for '_Z15MaxPoolBackwardIfEviPKT_PKiiiiiiiiiiiiPS0_'...
GPGPU-Sim PTX: reconvergence points for _Z15MaxPoolBackwardIfEviPKT_PKiiiiiiiiiiiiPS0_...
GPGPU-Sim PTX:  1 (potential) branch divergence @  PC=0x1400 (_5.ptx:83) @%p1 bra $Lt_0_5634;
GPGPU-Sim PTX:    immediate post dominator      @  PC=0x1708 (_5.ptx:201) exit;
GPGPU-Sim PTX:  2 (potential) branch divergence @  PC=0x14a8 (_5.ptx:106) @%p2 bra $Lt_0_6658;
GPGPU-Sim PTX:    immediate post dominator      @  PC=0x14d8 (_5.ptx:115) rem.s32 %r24, %r6, %r17;
GPGPU-Sim PTX:  3 (potential) branch divergence @  PC=0x14c8 (_5.ptx:111) bra.uni $Lt_0_6402;
GPGPU-Sim PTX:    immediate post dominator      @  PC=0x14d8 (_5.ptx:115) rem.s32 %r24, %r6, %r17;
GPGPU-Sim PTX:  4 (potential) branch divergence @  PC=0x14f0 (_5.ptx:118) @%p3 bra $Lt_0_7170;
GPGPU-Sim PTX:    immediate post dominator      @  PC=0x1528 (_5.ptx:129) mov.s32 %r30, %r23;
GPGPU-Sim PTX:  5 (potential) branch divergence @  PC=0x1518 (_5.ptx:124) bra.uni $Lt_0_6914;
GPGPU-Sim PTX:    immediate post dominator      @  PC=0x1528 (_5.ptx:129) mov.s32 %r30, %r23;
GPGPU-Sim PTX:  6 (potential) branch divergence @  PC=0x1550 (_5.ptx:134) @%p4 bra $Lt_0_10498;
GPGPU-Sim PTX:    immediate post dominator      @  PC=0x16e0 (_5.ptx:194) st.global.f32 [%rd5+0], %f1;
GPGPU-Sim PTX:  7 (potential) branch divergence @  PC=0x1610 (_5.ptx:160) @!%p5 bra $Lt_0_8194;
GPGPU-Sim PTX:    immediate post dominator      @  PC=0x16b8 (_5.ptx:186) add.s32 %r30, %r30, 1;
GPGPU-Sim PTX:  8 (potential) branch divergence @  PC=0x1678 (_5.ptx:175) @%p6 bra $Lt_0_8962;
GPGPU-Sim PTX:    immediate post dominator      @  PC=0x1698 (_5.ptx:181) add.s32 %r51, %r51, 1;
GPGPU-Sim PTX:  9 (potential) branch divergence @  PC=0x16b0 (_5.ptx:184) @%p7 bra $Lt_0_8706;
GPGPU-Sim PTX:    immediate post dominator      @  PC=0x16b8 (_5.ptx:186) add.s32 %r30, %r30, 1;
GPGPU-Sim PTX: 10 (potential) branch divergence @  PC=0x16c8 (_5.ptx:188) @%p8 bra $Lt_0_7938;
GPGPU-Sim PTX:    immediate post dominator      @  PC=0x16d0 (_5.ptx:189) bra.uni $Lt_0_7426;
GPGPU-Sim PTX: 11 (potential) branch divergence @  PC=0x16d0 (_5.ptx:189) bra.uni $Lt_0_7426;
GPGPU-Sim PTX:    immediate post dominator      @  PC=0x16e0 (_5.ptx:194) st.global.f32 [%rd5+0], %f1;
GPGPU-Sim PTX: 12 (potential) branch divergence @  PC=0x1700 (_5.ptx:198) @%p9 bra $Lt_0_6146;
GPGPU-Sim PTX:    immediate post dominator      @  PC=0x1708 (_5.ptx:201) exit;
GPGPU-Sim PTX: ... end of reconvergence points for _Z15MaxPoolBackwardIfEviPKT_PKiiiiiiiiiiiiPS0_
GPGPU-Sim PTX: ... done pre-decoding instructions for '_Z15MaxPoolBackwardIfEviPKT_PKiiiiiiiiiiiiPS0_'.
GPGPU-Sim PTX: instruction assembly for function '_Z14MaxPoolForwardIfEviPKT_iiiiiiiiPS0_Pi'...   done.
GPGPU-Sim PTX: finding reconvergence points for '_Z14MaxPoolForwardIfEviPKT_iiiiiiiiPS0_Pi'...
GPGPU-Sim PTX: Finding dominators for '_Z14MaxPoolForwardIfEviPKT_iiiiiiiiPS0_Pi'...
GPGPU-Sim PTX: Finding immediate dominators for '_Z14MaxPoolForwardIfEviPKT_iiiiiiiiPS0_Pi'...
GPGPU-Sim PTX: Finding postdominators for '_Z14MaxPoolForwardIfEviPKT_iiiiiiiiPS0_Pi'...
GPGPU-Sim PTX: Finding immediate postdominators for '_Z14MaxPoolForwardIfEviPKT_iiiiiiiiPS0_Pi'...
GPGPU-Sim PTX: pre-decoding instructions for '_Z14MaxPoolForwardIfEviPKT_iiiiiiiiPS0_Pi'...
GPGPU-Sim PTX: reconvergence points for _Z14MaxPoolForwardIfEviPKT_iiiiiiiiPS0_Pi...
GPGPU-Sim PTX:  1 (potential) branch divergence @  PC=0x1750 (_5.ptx:234) @%p1 bra $Lt_1_4098;
GPGPU-Sim PTX:    immediate post dominator      @  PC=0x19f0 (_5.ptx:335) exit;
GPGPU-Sim PTX:  2 (potential) branch divergence @  PC=0x1828 (_5.ptx:264) @%p2 bra $Lt_1_7938;
GPGPU-Sim PTX:    immediate post dominator      @  PC=0x19b8 (_5.ptx:325) st.global.f32 [%rd5+0], %f1;
GPGPU-Sim PTX:  3 (potential) branch divergence @  PC=0x18f8 (_5.ptx:292) @!%p3 bra $Lt_1_5634;
GPGPU-Sim PTX:    immediate post dominator      @  PC=0x1988 (_5.ptx:316) add.s32 %r22, %r22, 1;
GPGPU-Sim PTX:  4 (potential) branch divergence @  PC=0x1950 (_5.ptx:305) @!%p4 bra $Lt_1_6402;
GPGPU-Sim PTX:    immediate post dominator      @  PC=0x1968 (_5.ptx:311) add.s32 %r46, %r46, 1;
GPGPU-Sim PTX:  5 (potential) branch divergence @  PC=0x1980 (_5.ptx:314) @%p5 bra $Lt_1_6146;
GPGPU-Sim PTX:    immediate post dominator      @  PC=0x1988 (_5.ptx:316) add.s32 %r22, %r22, 1;
GPGPU-Sim PTX:  6 (potential) branch divergence @  PC=0x1998 (_5.ptx:318) @%p6 bra $Lt_1_5378;
GPGPU-Sim PTX:    immediate post dominator      @  PC=0x19a0 (_5.ptx:319) bra.uni $Lt_1_4866;
GPGPU-Sim PTX:  7 (potential) branch divergence @  PC=0x19a0 (_5.ptx:319) bra.uni $Lt_1_4866;
GPGPU-Sim PTX:    immediate post dominator      @  PC=0x19b8 (_5.ptx:325) st.global.f32 [%rd5+0], %f1;
GPGPU-Sim PTX:  8 (potential) branch divergence @  PC=0x19e8 (_5.ptx:332) @%p7 bra $Lt_1_4610;
GPGPU-Sim PTX:    immediate post dominator      @  PC=0x19f0 (_5.ptx:335) exit;
GPGPU-Sim PTX: ... end of reconvergence points for _Z14MaxPoolForwardIfEviPKT_iiiiiiiiPS0_Pi
GPGPU-Sim PTX: ... done pre-decoding instructions for '_Z14MaxPoolForwardIfEviPKT_iiiiiiiiPS0_Pi'.
GPGPU-Sim PTX: finished parsing EMBEDDED .ptx file _5.ptx
Adding _cuobjdump_5.ptx with cubin handle 5
GPGPU-Sim PTX: extracting embedded .ptx to temporary file "_ptx_y8Dxrc"
Running: cat _ptx_y8Dxrc | sed 's/.version 1.5/.version 1.4/' | sed 's/, texmode_independent//' | sed 's/\(\.extern \.const\[1\] .b8 \w\+\)\[\]/\1\[1\]/' | sed 's/const\[.\]/const\[0\]/g' > _ptx2_8H7R8N
GPGPU-Sim PTX: generating ptxinfo using "$CUDA_INSTALL_PATH/bin/ptxas --gpu-name=sm_20 -v _ptx2_8H7R8N --output-file  /dev/null 2> _ptx_y8Dxrcinfo"
GPGPU-Sim PTX: Kernel '_Z14MaxPoolForwardIfEviPKT_iiiiiiiiPS0_Pi' : regs=22, lmem=0, smem=0, cmem=96
GPGPU-Sim PTX: Kernel '_Z15MaxPoolBackwardIfEviPKT_PKiiiiiiiiiiiiPS0_' : regs=23, lmem=0, smem=0, cmem=112
GPGPU-Sim PTX: removing ptxinfo using "rm -f _ptx_y8Dxrc _ptx2_8H7R8N _ptx_y8Dxrcinfo"
GPGPU-Sim PTX: loading globals with explicit initializers... 
GPGPU-Sim PTX: finished loading globals (0 bytes total).
GPGPU-Sim PTX: loading constants with explicit initializers...  done.
GPGPU-Sim PTX: __cudaRegisterFunction _Z15MaxPoolBackwardIfEviPKT_PKiiiiiiiiiiiiPS0_ : hostFun 0x0x405ac0, fat_cubin_handle = 5
GPGPU-Sim PTX: __cudaRegisterFatBinary, fat_cubin_handle = 6, filename=/home/bing/cu_learn/im2col/src/sigmoid.cu
GPGPU-Sim PTX: __cudaRegisterFunction _Z14SigmoidForwardIfEviPKT_PS0_ : hostFun 0x0x406470, fat_cubin_handle = 6
GPGPU-Sim PTX: instruction assembly for function '_Z12ReLUBackwardIfEviPKT_S2_PS0_'...   done.
GPGPU-Sim PTX: finding reconvergence points for '_Z12ReLUBackwardIfEviPKT_S2_PS0_'...
GPGPU-Sim PTX: Finding dominators for '_Z12ReLUBackwardIfEviPKT_S2_PS0_'...
GPGPU-Sim PTX: Finding immediate dominators for '_Z12ReLUBackwardIfEviPKT_S2_PS0_'...
GPGPU-Sim PTX: Finding postdominators for '_Z12ReLUBackwardIfEviPKT_S2_PS0_'...
GPGPU-Sim PTX: Finding immediate postdominators for '_Z12ReLUBackwardIfEviPKT_S2_PS0_'...
GPGPU-Sim PTX: pre-decoding instructions for '_Z12ReLUBackwardIfEviPKT_S2_PS0_'...
GPGPU-Sim PTX: reconvergence points for _Z12ReLUBackwardIfEviPKT_S2_PS0_...
GPGPU-Sim PTX:  1 (potential) branch divergence @  PC=0x1a38 (_6.ptx:72) @%p1 bra $Lt_0_2050;
GPGPU-Sim PTX:    immediate post dominator      @  PC=0x1b00 (_6.ptx:104) exit;
GPGPU-Sim PTX:  2 (potential) branch divergence @  PC=0x1a98 (_6.ptx:86) @!%p2 bra $Lt_0_3074;
GPGPU-Sim PTX:    immediate post dominator      @  PC=0x1ac8 (_6.ptx:95) add.u64 %rd9, %rd2, %rd4;
GPGPU-Sim PTX:  3 (potential) branch divergence @  PC=0x1ab8 (_6.ptx:91) bra.uni $Lt_0_2818;
GPGPU-Sim PTX:    immediate post dominator      @  PC=0x1ac8 (_6.ptx:95) add.u64 %rd9, %rd2, %rd4;
GPGPU-Sim PTX:  4 (potential) branch divergence @  PC=0x1af8 (_6.ptx:101) @%p3 bra $Lt_0_2562;
GPGPU-Sim PTX:    immediate post dominator      @  PC=0x1b00 (_6.ptx:104) exit;
GPGPU-Sim PTX: ... end of reconvergence points for _Z12ReLUBackwardIfEviPKT_S2_PS0_
GPGPU-Sim PTX: ... done pre-decoding instructions for '_Z12ReLUBackwardIfEviPKT_S2_PS0_'.
GPGPU-Sim PTX: instruction assembly for function '_Z11ReLUForwardIfEviPKT_PS0_'...   done.
GPGPU-Sim PTX: finding reconvergence points for '_Z11ReLUForwardIfEviPKT_PS0_'...
GPGPU-Sim PTX: Finding dominators for '_Z11ReLUForwardIfEviPKT_PS0_'...
GPGPU-Sim PTX: Finding immediate dominators for '_Z11ReLUForwardIfEviPKT_PS0_'...
GPGPU-Sim PTX: Finding postdominators for '_Z11ReLUForwardIfEviPKT_PS0_'...
GPGPU-Sim PTX: Finding immediate postdominators for '_Z11ReLUForwardIfEviPKT_PS0_'...
GPGPU-Sim PTX: pre-decoding instructions for '_Z11ReLUForwardIfEviPKT_PS0_'...
GPGPU-Sim PTX: reconvergence points for _Z11ReLUForwardIfEviPKT_PS0_...
GPGPU-Sim PTX:  1 (potential) branch divergence @  PC=0x1b48 (_6.ptx:128) @%p1 bra $Lt_1_1794;
GPGPU-Sim PTX:    immediate post dominator      @  PC=0x1be8 (_6.ptx:153) exit;
GPGPU-Sim PTX:  2 (potential) branch divergence @  PC=0x1be0 (_6.ptx:150) @%p2 bra $Lt_1_2306;
GPGPU-Sim PTX:    immediate post dominator      @  PC=0x1be8 (_6.ptx:153) exit;
GPGPU-Sim PTX: ... end of reconvergence points for _Z11ReLUForwardIfEviPKT_PS0_
GPGPU-Sim PTX: ... done pre-decoding instructions for '_Z11ReLUForwardIfEviPKT_PS0_'.
GPGPU-Sim PTX: instruction assembly for function '_Z14SigmoidForwardIfEviPKT_PS0_'...   done.
GPGPU-Sim PTX: finding reconvergence points for '_Z14SigmoidForwardIfEviPKT_PS0_'...
GPGPU-Sim PTX: Finding dominators for '_Z14SigmoidForwardIfEviPKT_PS0_'...
GPGPU-Sim PTX: Finding immediate dominators for '_Z14SigmoidForwardIfEviPKT_PS0_'...
GPGPU-Sim PTX: Finding postdominators for '_Z14SigmoidForwardIfEviPKT_PS0_'...
GPGPU-Sim PTX: Finding immediate postdominators for '_Z14SigmoidForwardIfEviPKT_PS0_'...
GPGPU-Sim PTX: pre-decoding instructions for '_Z14SigmoidForwardIfEviPKT_PS0_'...
GPGPU-Sim PTX: reconvergence points for _Z14SigmoidForwardIfEviPKT_PS0_...
GPGPU-Sim PTX:  1 (potential) branch divergence @  PC=0x1c30 (_6.ptx:178) @%p1 bra $Lt_2_4354;
GPGPU-Sim PTX:    immediate post dominator      @  PC=0x2040 (_6.ptx:341) exit;
GPGPU-Sim PTX:  2 (potential) branch divergence @  PC=0x1cc0 (_6.ptx:199) @!%p2 bra $Lt_2_5378;
GPGPU-Sim PTX:    immediate post dominator      @  PC=0x1ff0 (_6.ptx:329) mov.f64 %fd73, 0d3fe0000000000000;// 0.5
GPGPU-Sim PTX:  3 (potential) branch divergence @  PC=0x1df0 (_6.ptx:248) @%p3 bra $Lt_2_5890;
GPGPU-Sim PTX:    immediate post dominator      @  PC=0x1e88 (_6.ptx:275) mov.f64 %fd42, 0d3ff0000000000000;// 1
GPGPU-Sim PTX:  4 (potential) branch divergence @  PC=0x1e10 (_6.ptx:253) bra.uni $Lt_2_5634;
GPGPU-Sim PTX:    immediate post dominator      @  PC=0x1e88 (_6.ptx:275) mov.f64 %fd42, 0d3ff0000000000000;// 1
GPGPU-Sim PTX:  5 (potential) branch divergence @  PC=0x1e28 (_6.ptx:257) @%p4 bra $Lt_2_6402;
GPGPU-Sim PTX:    immediate post dominator      @  PC=0x1e50 (_6.ptx:266) mov.s32 %r18, 0;
GPGPU-Sim PTX:  6 (potential) branch divergence @  PC=0x1e40 (_6.ptx:261) bra.uni $Lt_2_6146;
GPGPU-Sim PTX:    immediate post dominator      @  PC=0x1e50 (_6.ptx:266) mov.s32 %r18, 0;
GPGPU-Sim PTX:  7 (potential) branch divergence @  PC=0x1f08 (_6.ptx:291) bra.uni $Lt_2_5122;
GPGPU-Sim PTX:    immediate post dominator      @  PC=0x1ff0 (_6.ptx:329) mov.f64 %fd73, 0d3fe0000000000000;// 0.5
GPGPU-Sim PTX:  8 (potential) branch divergence @  PC=0x2038 (_6.ptx:338) @%p6 bra $Lt_2_4866;
GPGPU-Sim PTX:    immediate post dominator      @  PC=0x2040 (_6.ptx:341) exit;
GPGPU-Sim PTX: ... end of reconvergence points for _Z14SigmoidForwardIfEviPKT_PS0_
GPGPU-Sim PTX: ... done pre-decoding instructions for '_Z14SigmoidForwardIfEviPKT_PS0_'.
GPGPU-Sim PTX: finished parsing EMBEDDED .ptx file _6.ptx
Adding _cuobjdump_6.ptx with cubin handle 6
GPGPU-Sim PTX: extracting embedded .ptx to temporary file "_ptx_9rl07p"
Running: cat _ptx_9rl07p | sed 's/.version 1.5/.version 1.4/' | sed 's/, texmode_independent//' | sed 's/\(\.extern \.const\[1\] .b8 \w\+\)\[\]/\1\[1\]/' | sed 's/const\[.\]/const\[0\]/g' > _ptx2_KL7b71
GPGPU-Sim PTX: generating ptxinfo using "$CUDA_INSTALL_PATH/bin/ptxas --gpu-name=sm_20 -v _ptx2_KL7b71 --output-file  /dev/null 2> _ptx_9rl07pinfo"
GPGPU-Sim PTX: Kernel '_Z14SigmoidForwardIfEviPKT_PS0_' : regs=26, lmem=0, smem=0, cmem=60
GPGPU-Sim PTX: Kernel '_Z11ReLUForwardIfEviPKT_PS0_' : regs=10, lmem=0, smem=0, cmem=56
GPGPU-Sim PTX: Kernel '_Z12ReLUBackwardIfEviPKT_S2_PS0_' : regs=9, lmem=0, smem=0, cmem=64
GPGPU-Sim PTX: removing ptxinfo using "rm -f _ptx_9rl07p _ptx2_KL7b71 _ptx_9rl07pinfo"
GPGPU-Sim PTX: loading globals with explicit initializers... 
GPGPU-Sim PTX: finished loading globals (0 bytes total).
GPGPU-Sim PTX: loading constants with explicit initializers...  done.
GPGPU-Sim PTX: __cudaRegisterFunction _Z11ReLUForwardIfEviPKT_PS0_ : hostFun 0x0x4063f0, fat_cubin_handle = 6
GPGPU-Sim PTX: __cudaRegisterFunction _Z12ReLUBackwardIfEviPKT_S2_PS0_ : hostFun 0x0x406360, fat_cubin_handle = 6

GPGPU-Sim PTX: cudaLaunch for 0x0x402d30 (mode=performance simulation) on stream 0
GPGPU-Sim PTX: pushing kernel '_Z13fc_gpu_kernelPfS_S_iii' to stream 0, gridDim= (1,63,1) blockDim = (8,8,1) 
kernel '_Z13fc_gpu_kernelPfS_S_iii' transfer to GPU hardware scheduler
GPGPU-Sim uArch: Shader 1 bind to kernel 1 '_Z13fc_gpu_kernelPfS_S_iii'
GPGPU-Sim uArch: CTA/core = 8, limited by: cta_limit
GPGPU-Sim uArch: core:  1, cta: 0 initialized @(1,0)
GPGPU-Sim uArch: Shader 2 bind to kernel 1 '_Z13fc_gpu_kernelPfS_S_iii'
GPGPU-Sim uArch: core:  2, cta: 0 initialized @(1,0)
GPGPU-Sim uArch: Shader 3 bind to kernel 1 '_Z13fc_gpu_kernelPfS_S_iii'
GPGPU-Sim uArch: core:  3, cta: 0 initialized @(1,0)
GPGPU-Sim uArch: Shader 4 bind to kernel 1 '_Z13fc_gpu_kernelPfS_S_iii'
GPGPU-Sim uArch: core:  4, cta: 0 initialized @(1,0)
GPGPU-Sim uArch: Shader 5 bind to kernel 1 '_Z13fc_gpu_kernelPfS_S_iii'
GPGPU-Sim uArch: core:  5, cta: 0 initialized @(1,0)
GPGPU-Sim uArch: Shader 6 bind to kernel 1 '_Z13fc_gpu_kernelPfS_S_iii'
GPGPU-Sim uArch: core:  6, cta: 0 initialized @(1,0)
GPGPU-Sim uArch: Shader 7 bind to kernel 1 '_Z13fc_gpu_kernelPfS_S_iii'
GPGPU-Sim uArch: core:  7, cta: 0 initialized @(1,0)
GPGPU-Sim uArch: Shader 8 bind to kernel 1 '_Z13fc_gpu_kernelPfS_S_iii'
GPGPU-Sim uArch: core:  8, cta: 0 initialized @(1,0)
GPGPU-Sim uArch: Shader 9 bind to kernel 1 '_Z13fc_gpu_kernelPfS_S_iii'
GPGPU-Sim uArch: core:  9, cta: 0 initialized @(1,0)
GPGPU-Sim uArch: Shader 10 bind to kernel 1 '_Z13fc_gpu_kernelPfS_S_iii'
GPGPU-Sim uArch: core: 10, cta: 0 initialized @(1,0)
GPGPU-Sim uArch: Shader 11 bind to kernel 1 '_Z13fc_gpu_kernelPfS_S_iii'
GPGPU-Sim uArch: core: 11, cta: 0 initialized @(1,0)
GPGPU-Sim uArch: Shader 12 bind to kernel 1 '_Z13fc_gpu_kernelPfS_S_iii'
GPGPU-Sim uArch: core: 12, cta: 0 initialized @(1,0)
GPGPU-Sim uArch: Shader 13 bind to kernel 1 '_Z13fc_gpu_kernelPfS_S_iii'
GPGPU-Sim uArch: core: 13, cta: 0 initialized @(1,0)
GPGPU-Sim uArch: Shader 14 bind to kernel 1 '_Z13fc_gpu_kernelPfS_S_iii'
GPGPU-Sim uArch: core: 14, cta: 0 initialized @(1,0)
GPGPU-Sim uArch: Shader 0 bind to kernel 1 '_Z13fc_gpu_kernelPfS_S_iii'
GPGPU-Sim uArch: core:  0, cta: 0 initialized @(1,0)
GPGPU-Sim uArch: core:  1, cta: 1 initialized @(2,0)
GPGPU-Sim uArch: core:  2, cta: 1 initialized @(2,0)
GPGPU-Sim uArch: core:  3, cta: 1 initialized @(2,0)
GPGPU-Sim uArch: core:  4, cta: 1 initialized @(2,0)
GPGPU-Sim uArch: core:  5, cta: 1 initialized @(2,0)
GPGPU-Sim uArch: core:  6, cta: 1 initialized @(2,0)
GPGPU-Sim uArch: core:  7, cta: 1 initialized @(2,0)
GPGPU-Sim uArch: core:  8, cta: 1 initialized @(2,0)
GPGPU-Sim uArch: core:  9, cta: 1 initialized @(2,0)
GPGPU-Sim uArch: core: 10, cta: 1 initialized @(2,0)
GPGPU-Sim uArch: core: 11, cta: 1 initialized @(2,0)
GPGPU-Sim uArch: core: 12, cta: 1 initialized @(2,0)
GPGPU-Sim uArch: core: 13, cta: 1 initialized @(2,0)
GPGPU-Sim uArch: core: 14, cta: 1 initialized @(2,0)
GPGPU-Sim uArch: core:  0, cta: 1 initialized @(2,0)
GPGPU-Sim uArch: core:  1, cta: 2 initialized @(3,0)
GPGPU-Sim uArch: core:  2, cta: 2 initialized @(3,0)
GPGPU-Sim uArch: core:  3, cta: 2 initialized @(3,0)
GPGPU-Sim uArch: core:  4, cta: 2 initialized @(3,0)
GPGPU-Sim uArch: core:  5, cta: 2 initialized @(3,0)
GPGPU-Sim uArch: core:  6, cta: 2 initialized @(3,0)
GPGPU-Sim uArch: core:  7, cta: 2 initialized @(3,0)
GPGPU-Sim uArch: core:  8, cta: 2 initialized @(3,0)
GPGPU-Sim uArch: core:  9, cta: 2 initialized @(3,0)
GPGPU-Sim uArch: core: 10, cta: 2 initialized @(3,0)
GPGPU-Sim uArch: core: 11, cta: 2 initialized @(3,0)
GPGPU-Sim uArch: core: 12, cta: 2 initialized @(3,0)
GPGPU-Sim uArch: core: 13, cta: 2 initialized @(3,0)
GPGPU-Sim uArch: core: 14, cta: 2 initialized @(3,0)
GPGPU-Sim uArch: core:  0, cta: 2 initialized @(3,0)
GPGPU-Sim uArch: core:  1, cta: 3 initialized @(4,0)
GPGPU-Sim uArch: core:  2, cta: 3 initialized @(4,0)
GPGPU-Sim uArch: core:  3, cta: 3 initialized @(4,0)
GPGPU-Sim uArch: core:  4, cta: 3 initialized @(4,0)
GPGPU-Sim uArch: core:  5, cta: 3 initialized @(4,0)
GPGPU-Sim uArch: core:  6, cta: 3 initialized @(4,0)
GPGPU-Sim uArch: core:  7, cta: 3 initialized @(4,0)
GPGPU-Sim uArch: core:  8, cta: 3 initialized @(4,0)
GPGPU-Sim uArch: core:  9, cta: 3 initialized @(4,0)
GPGPU-Sim uArch: core: 10, cta: 3 initialized @(4,0)
GPGPU-Sim uArch: core: 11, cta: 3 initialized @(4,0)
GPGPU-Sim uArch: core: 12, cta: 3 initialized @(4,0)
GPGPU-Sim uArch: core: 13, cta: 3 initialized @(4,0)
GPGPU-Sim uArch: core: 14, cta: 3 initialized @(4,0)
GPGPU-Sim uArch: core:  0, cta: 3 initialized @(4,0)
GPGPU-Sim uArch: core:  1, cta: 4 initialized @(5,0)
GPGPU-Sim uArch: core:  2, cta: 4 initialized @(5,0)
GPGPU-Sim uArch: core:  3, cta: 4 initialized @(5,0)
GPGPU-Sim uArch: cycles simulated: 500  inst.: 40320 (ipc=80.6) sim_rate=40320 (inst/sec) elapsed = 0:0:00:01 / Thu Jul 26 12:17:55 2018
GPGPU-Sim uArch: Shader 3 finished CTA #1 (1196,0), 4 CTAs running
GPGPU-Sim uArch: Shader 3 finished CTA #0 (1197,0), 3 CTAs running
GPGPU-Sim uArch: Shader 3 finished CTA #2 (1198,0), 2 CTAs running
GPGPU-Sim uArch: Shader 3 finished CTA #3 (1201,0), 1 CTAs running
GPGPU-Sim uArch: Shader 1 finished CTA #1 (1202,0), 4 CTAs running
GPGPU-Sim uArch: Shader 3 finished CTA #4 (1202,0), 0 CTAs running
GPGPU-Sim uArch: Shader 3 empty (release kernel 1 '_Z13fc_gpu_kernelPfS_S_iii').
GPGPU-Sim uArch: Shader 1 finished CTA #2 (1204,0), 3 CTAs running
GPGPU-Sim uArch: Shader 1 finished CTA #3 (1205,0), 2 CTAs running
GPGPU-Sim uArch: Shader 1 finished CTA #4 (1207,0), 1 CTAs running
GPGPU-Sim uArch: Shader 5 finished CTA #0 (1208,0), 3 CTAs running
GPGPU-Sim uArch: Shader 5 finished CTA #1 (1209,0), 2 CTAs running
GPGPU-Sim uArch: Shader 5 finished CTA #2 (1210,0), 1 CTAs running
GPGPU-Sim uArch: Shader 5 finished CTA #3 (1212,0), 0 CTAs running
GPGPU-Sim uArch: Shader 5 empty (release kernel 1 '_Z13fc_gpu_kernelPfS_S_iii').
GPGPU-Sim uArch: Shader 4 finished CTA #0 (1214,0), 3 CTAs running
GPGPU-Sim uArch: Shader 4 finished CTA #1 (1215,0), 2 CTAs running
GPGPU-Sim uArch: Shader 4 finished CTA #2 (1216,0), 1 CTAs running
GPGPU-Sim uArch: Shader 4 finished CTA #3 (1218,0), 0 CTAs running
GPGPU-Sim uArch: Shader 4 empty (release kernel 1 '_Z13fc_gpu_kernelPfS_S_iii').
GPGPU-Sim uArch: Shader 0 finished CTA #0 (1220,0), 3 CTAs running
GPGPU-Sim uArch: Shader 0 finished CTA #1 (1221,0), 2 CTAs running
GPGPU-Sim uArch: Shader 0 finished CTA #2 (1222,0), 1 CTAs running
GPGPU-Sim uArch: Shader 0 finished CTA #3 (1224,0), 0 CTAs running
GPGPU-Sim uArch: Shader 0 empty (release kernel 1 '_Z13fc_gpu_kernelPfS_S_iii').
GPGPU-Sim uArch: Shader 2 finished CTA #1 (1226,0), 4 CTAs running
GPGPU-Sim uArch: Shader 2 finished CTA #0 (1228,0), 3 CTAs running
GPGPU-Sim uArch: Shader 2 finished CTA #2 (1229,0), 2 CTAs running
GPGPU-Sim uArch: Shader 2 finished CTA #3 (1230,0), 1 CTAs running
GPGPU-Sim uArch: Shader 2 finished CTA #4 (1232,0), 0 CTAs running
GPGPU-Sim uArch: Shader 2 empty (release kernel 1 '_Z13fc_gpu_kernelPfS_S_iii').
GPGPU-Sim uArch: Shader 6 finished CTA #0 (1232,0), 3 CTAs running
GPGPU-Sim uArch: Shader 6 finished CTA #1 (1233,0), 2 CTAs running
GPGPU-Sim uArch: Shader 6 finished CTA #2 (1234,0), 1 CTAs running
GPGPU-Sim uArch: Shader 6 finished CTA #3 (1236,0), 0 CTAs running
GPGPU-Sim uArch: Shader 6 empty (release kernel 1 '_Z13fc_gpu_kernelPfS_S_iii').
GPGPU-Sim uArch: Shader 7 finished CTA #0 (1238,0), 3 CTAs running
GPGPU-Sim uArch: Shader 7 finished CTA #1 (1239,0), 2 CTAs running
GPGPU-Sim uArch: Shader 7 finished CTA #2 (1240,0), 1 CTAs running
GPGPU-Sim uArch: Shader 7 finished CTA #3 (1242,0), 0 CTAs running
GPGPU-Sim uArch: Shader 7 empty (release kernel 1 '_Z13fc_gpu_kernelPfS_S_iii').
GPGPU-Sim uArch: Shader 8 finished CTA #0 (1244,0), 3 CTAs running
GPGPU-Sim uArch: Shader 8 finished CTA #1 (1245,0), 2 CTAs running
GPGPU-Sim uArch: Shader 8 finished CTA #2 (1246,0), 1 CTAs running
GPGPU-Sim uArch: Shader 8 finished CTA #3 (1248,0), 0 CTAs running
GPGPU-Sim uArch: Shader 8 empty (release kernel 1 '_Z13fc_gpu_kernelPfS_S_iii').
GPGPU-Sim uArch: Shader 9 finished CTA #0 (1250,0), 3 CTAs running
GPGPU-Sim uArch: Shader 9 finished CTA #1 (1251,0), 2 CTAs running
GPGPU-Sim uArch: Shader 9 finished CTA #2 (1252,0), 1 CTAs running
GPGPU-Sim uArch: Shader 9 finished CTA #3 (1254,0), 0 CTAs running
GPGPU-Sim uArch: Shader 9 empty (release kernel 1 '_Z13fc_gpu_kernelPfS_S_iii').
GPGPU-Sim uArch: Shader 10 finished CTA #0 (1256,0), 3 CTAs running
GPGPU-Sim uArch: Shader 10 finished CTA #1 (1257,0), 2 CTAs running
GPGPU-Sim uArch: Shader 10 finished CTA #2 (1258,0), 1 CTAs running
GPGPU-Sim uArch: Shader 10 finished CTA #3 (1260,0), 0 CTAs running
GPGPU-Sim uArch: Shader 10 empty (release kernel 1 '_Z13fc_gpu_kernelPfS_S_iii').
GPGPU-Sim uArch: Shader 11 finished CTA #0 (1262,0), 3 CTAs running
GPGPU-Sim uArch: Shader 11 finished CTA #1 (1263,0), 2 CTAs running
GPGPU-Sim uArch: Shader 11 finished CTA #2 (1264,0), 1 CTAs running
GPGPU-Sim uArch: Shader 11 finished CTA #3 (1266,0), 0 CTAs running
GPGPU-Sim uArch: Shader 11 empty (release kernel 1 '_Z13fc_gpu_kernelPfS_S_iii').
GPGPU-Sim uArch: Shader 12 finished CTA #2 (1268,0), 3 CTAs running
GPGPU-Sim uArch: Shader 12 finished CTA #0 (1269,0), 2 CTAs running
GPGPU-Sim uArch: Shader 12 finished CTA #1 (1270,0), 1 CTAs running
GPGPU-Sim uArch: Shader 12 finished CTA #3 (1272,0), 0 CTAs running
GPGPU-Sim uArch: Shader 12 empty (release kernel 1 '_Z13fc_gpu_kernelPfS_S_iii').
GPGPU-Sim uArch: Shader 13 finished CTA #0 (1274,0), 3 CTAs running
GPGPU-Sim uArch: Shader 13 finished CTA #1 (1275,0), 2 CTAs running
GPGPU-Sim uArch: Shader 13 finished CTA #2 (1276,0), 1 CTAs running
GPGPU-Sim uArch: Shader 13 finished CTA #3 (1278,0), 0 CTAs running
GPGPU-Sim uArch: Shader 13 empty (release kernel 1 '_Z13fc_gpu_kernelPfS_S_iii').
GPGPU-Sim uArch: Shader 14 finished CTA #0 (1280,0), 3 CTAs running
GPGPU-Sim uArch: Shader 14 finished CTA #1 (1281,0), 2 CTAs running
GPGPU-Sim uArch: Shader 14 finished CTA #2 (1282,0), 1 CTAs running
GPGPU-Sim uArch: Shader 14 finished CTA #3 (1284,0), 0 CTAs running
GPGPU-Sim uArch: Shader 14 empty (release kernel 1 '_Z13fc_gpu_kernelPfS_S_iii').
GPGPU-Sim uArch: cycles simulated: 15000  inst.: 88008 (ipc= 5.9) sim_rate=44004 (inst/sec) elapsed = 0:0:00:02 / Thu Jul 26 12:17:56 2018
GPGPU-Sim uArch: cycles simulated: 32500  inst.: 92112 (ipc= 2.8) sim_rate=30704 (inst/sec) elapsed = 0:0:00:03 / Thu Jul 26 12:17:57 2018
GPGPU-Sim uArch: cycles simulated: 52000  inst.: 96720 (ipc= 1.9) sim_rate=24180 (inst/sec) elapsed = 0:0:00:04 / Thu Jul 26 12:17:58 2018
GPGPU-Sim PTX: 100000 instructions simulated : ctaid=(0,0,0) tid=(7,0,0)
GPGPU-Sim uArch: cycles simulated: 70500  inst.: 101040 (ipc= 1.4) sim_rate=20208 (inst/sec) elapsed = 0:0:00:05 / Thu Jul 26 12:17:59 2018
GPGPU-Sim uArch: cycles simulated: 88000  inst.: 105144 (ipc= 1.2) sim_rate=17524 (inst/sec) elapsed = 0:0:00:06 / Thu Jul 26 12:18:00 2018
GPGPU-Sim uArch: cycles simulated: 101000  inst.: 108168 (ipc= 1.1) sim_rate=15452 (inst/sec) elapsed = 0:0:00:07 / Thu Jul 26 12:18:01 2018
GPGPU-Sim uArch: cycles simulated: 118500  inst.: 112272 (ipc= 0.9) sim_rate=14034 (inst/sec) elapsed = 0:0:00:08 / Thu Jul 26 12:18:02 2018
GPGPU-Sim uArch: cycles simulated: 137500  inst.: 116672 (ipc= 0.8) sim_rate=12963 (inst/sec) elapsed = 0:0:00:09 / Thu Jul 26 12:18:03 2018
GPGPU-Sim uArch: cycles simulated: 155500  inst.: 120912 (ipc= 0.8) sim_rate=12091 (inst/sec) elapsed = 0:0:00:10 / Thu Jul 26 12:18:04 2018
GPGPU-Sim uArch: cycles simulated: 174500  inst.: 125376 (ipc= 0.7) sim_rate=11397 (inst/sec) elapsed = 0:0:00:11 / Thu Jul 26 12:18:05 2018
GPGPU-Sim uArch: cycles simulated: 194000  inst.: 129912 (ipc= 0.7) sim_rate=10826 (inst/sec) elapsed = 0:0:00:12 / Thu Jul 26 12:18:06 2018
GPGPU-Sim uArch: cycles simulated: 213000  inst.: 134376 (ipc= 0.6) sim_rate=10336 (inst/sec) elapsed = 0:0:00:13 / Thu Jul 26 12:18:07 2018
GPGPU-Sim uArch: cycles simulated: 232000  inst.: 138840 (ipc= 0.6) sim_rate=9917 (inst/sec) elapsed = 0:0:00:14 / Thu Jul 26 12:18:08 2018
GPGPU-Sim uArch: Shader 1 finished CTA #0 (247471,0), 0 CTAs running
GPGPU-Sim uArch: Shader 1 empty (release kernel 1 '_Z13fc_gpu_kernelPfS_S_iii').
GPGPU-Sim uArch: GPU detected kernel '_Z13fc_gpu_kernelPfS_S_iii' finished on shader 1.
kernel_name = _Z13fc_gpu_kernelPfS_S_iii 
kernel_launch_uid = 1 
gpu_sim_cycle = 247472
gpu_sim_insn = 142456
gpu_ipc =       0.5756
gpu_tot_sim_cycle = 247472
gpu_tot_sim_insn = 142456
gpu_tot_ipc =       0.5756
gpu_tot_issued_cta = 0
gpu_stall_dramfull = 375
gpu_stall_icnt2sh    = 208
gpu_total_sim_rate=10175

========= Core cache stats =========
L1I_cache:
	L1I_total_cache_accesses = 5901
	L1I_total_cache_misses = 378
	L1I_total_cache_miss_rate = 0.0641
	L1I_total_cache_pending_hits = 0
	L1I_total_cache_reservation_fails = 0
L1D_cache:
	L1D_cache_core[0]: Access = 0, Miss = 0, Miss_rate = -nan, Pending_hits = 0, Reservation_fails = 0
	L1D_cache_core[1]: Access = 2501, Miss = 1725, Miss_rate = 0.690, Pending_hits = 0, Reservation_fails = 0
	L1D_cache_core[2]: Access = 0, Miss = 0, Miss_rate = -nan, Pending_hits = 0, Reservation_fails = 0
	L1D_cache_core[3]: Access = 0, Miss = 0, Miss_rate = -nan, Pending_hits = 0, Reservation_fails = 0
	L1D_cache_core[4]: Access = 0, Miss = 0, Miss_rate = -nan, Pending_hits = 0, Reservation_fails = 0
	L1D_cache_core[5]: Access = 0, Miss = 0, Miss_rate = -nan, Pending_hits = 0, Reservation_fails = 0
	L1D_cache_core[6]: Access = 0, Miss = 0, Miss_rate = -nan, Pending_hits = 0, Reservation_fails = 0
	L1D_cache_core[7]: Access = 0, Miss = 0, Miss_rate = -nan, Pending_hits = 0, Reservation_fails = 0
	L1D_cache_core[8]: Access = 0, Miss = 0, Miss_rate = -nan, Pending_hits = 0, Reservation_fails = 0
	L1D_cache_core[9]: Access = 0, Miss = 0, Miss_rate = -nan, Pending_hits = 0, Reservation_fails = 0
	L1D_cache_core[10]: Access = 0, Miss = 0, Miss_rate = -nan, Pending_hits = 0, Reservation_fails = 0
	L1D_cache_core[11]: Access = 0, Miss = 0, Miss_rate = -nan, Pending_hits = 0, Reservation_fails = 0
	L1D_cache_core[12]: Access = 0, Miss = 0, Miss_rate = -nan, Pending_hits = 0, Reservation_fails = 0
	L1D_cache_core[13]: Access = 0, Miss = 0, Miss_rate = -nan, Pending_hits = 0, Reservation_fails = 0
	L1D_cache_core[14]: Access = 0, Miss = 0, Miss_rate = -nan, Pending_hits = 0, Reservation_fails = 0
	L1D_total_cache_accesses = 2501
	L1D_total_cache_misses = 1725
	L1D_total_cache_miss_rate = 0.6897
	L1D_total_cache_pending_hits = 0
	L1D_total_cache_reservation_fails = 0
	L1D_cache_data_port_util = 0.003
	L1D_cache_fill_port_util = 0.003
L1C_cache:
	L1C_total_cache_accesses = 256
	L1C_total_cache_misses = 252
	L1C_total_cache_miss_rate = 0.9844
	L1C_total_cache_pending_hits = 0
	L1C_total_cache_reservation_fails = 0
L1T_cache:
	L1T_total_cache_accesses = 0
	L1T_total_cache_misses = 0
	L1T_total_cache_pending_hits = 0
	L1T_total_cache_reservation_fails = 0

Total_core_cache_stats:
	Total_core_cache_stats_breakdown[GLOBAL_ACC_R][HIT] = 775
	Total_core_cache_stats_breakdown[GLOBAL_ACC_R][MISS] = 926
	Total_core_cache_stats_breakdown[CONST_ACC_R][HIT] = 4
	Total_core_cache_stats_breakdown[CONST_ACC_R][MISS] = 252
	Total_core_cache_stats_breakdown[GLOBAL_ACC_W][HIT] = 1
	Total_core_cache_stats_breakdown[GLOBAL_ACC_W][MISS] = 799
	Total_core_cache_stats_breakdown[INST_ACC_R][HIT] = 5523
	Total_core_cache_stats_breakdown[INST_ACC_R][MISS] = 378
Shader 0 warp_id issue ditsribution:
warp_id:
0, 1, 2, 3, 4, 5, 6, 7, 
distro:
21, 21, 21, 21, 21, 21, 21, 21, 
gpgpu_n_tot_thrd_icount = 315904
gpgpu_n_tot_w_icount = 9872
gpgpu_n_stall_shd_mem = 100
gpgpu_n_mem_read_local = 0
gpgpu_n_mem_write_local = 0
gpgpu_n_mem_read_global = 926
gpgpu_n_mem_write_global = 800
gpgpu_n_mem_texture = 0
gpgpu_n_mem_const = 15
gpgpu_n_load_insn  = 12808
gpgpu_n_store_insn = 6400
gpgpu_n_shmem_insn = 0
gpgpu_n_tex_insn = 0
gpgpu_n_const_mem_insn = 0
gpgpu_n_param_mem_insn = 8096
gpgpu_n_shmem_bkconflict = 0
gpgpu_n_cache_bkconflict = 0
gpgpu_n_intrawarp_mshr_merge = 0
gpgpu_n_cmem_portconflict = 0
gpgpu_stall_shd_mem[c_mem][bk_conf] = 0
gpgpu_stall_shd_mem[c_mem][mshr_rc] = 0
gpgpu_stall_shd_mem[c_mem][icnt_rc] = 0
gpgpu_stall_shd_mem[c_mem][data_port_stall] = 0
gpgpu_stall_shd_mem[t_mem][mshr_rc] = 0
gpgpu_stall_shd_mem[t_mem][icnt_rc] = 0
gpgpu_stall_shd_mem[t_mem][data_port_stall] = 0
gpgpu_stall_shd_mem[s_mem][bk_conf] = 0
gpgpu_stall_shd_mem[gl_mem][bk_conf] = 0
gpgpu_stall_shd_mem[gl_mem][coal_stall] = 100
gpgpu_stall_shd_mem[gl_mem][data_port_stall] = 0
gpgpu_stall_shd_mem[g_mem_ld][mshr_rc] = 0
gpgpu_stall_shd_mem[g_mem_ld][icnt_rc] = 0
gpgpu_stall_shd_mem[g_mem_ld][wb_icnt_rc] = 0
gpgpu_stall_shd_mem[g_mem_ld][wb_rsrv_fail] = 0
gpgpu_stall_shd_mem[g_mem_st][mshr_rc] = 0
gpgpu_stall_shd_mem[g_mem_st][icnt_rc] = 0
gpgpu_stall_shd_mem[g_mem_st][wb_icnt_rc] = 0
gpgpu_stall_shd_mem[g_mem_st][wb_rsrv_fail] = 0
gpgpu_stall_shd_mem[l_mem_ld][mshr_rc] = 0
gpgpu_stall_shd_mem[l_mem_ld][icnt_rc] = 0
gpgpu_stall_shd_mem[l_mem_ld][wb_icnt_rc] = 0
gpgpu_stall_shd_mem[l_mem_ld][wb_rsrv_fail] = 0
gpgpu_stall_shd_mem[l_mem_st][mshr_rc] = 0
gpgpu_stall_shd_mem[l_mem_st][icnt_rc] = 0
gpgpu_stall_shd_mem[l_mem_ld][wb_icnt_rc] = 0
gpgpu_stall_shd_mem[l_mem_ld][wb_rsrv_fail] = 0
gpu_reg_bank_conflict_stalls = 0
Warp Occupancy Distribution:
Stall:73	W0_Idle:277375	W0_Scoreboard:242508	W1:0	W2:0	W3:0	W4:0	W5:0	W6:0	W7:0	W8:7226	W9:0	W10:0	W11:0	W12:0	W13:0	W14:0	W15:0	W16:0	W17:0	W18:0	W19:0	W20:0	W21:0	W22:0	W23:0	W24:0	W25:0	W26:0	W27:0	W28:0	W29:0	W30:0	W31:0	W32:2646
traffic_breakdown_coretomem[CONST_ACC_R] = 120 {8:15,}
traffic_breakdown_coretomem[GLOBAL_ACC_R] = 7408 {8:926,}
traffic_breakdown_coretomem[GLOBAL_ACC_W] = 32000 {40:800,}
traffic_breakdown_coretomem[INST_ACC_R] = 368 {8:46,}
traffic_breakdown_memtocore[CONST_ACC_R] = 1080 {72:15,}
traffic_breakdown_memtocore[GLOBAL_ACC_R] = 125936 {136:926,}
traffic_breakdown_memtocore[GLOBAL_ACC_W] = 6400 {8:800,}
traffic_breakdown_memtocore[INST_ACC_R] = 6256 {136:46,}
maxmrqlatency = 22 
maxdqlatency = 0 
maxmflatency = 285 
averagemflatency = 209 
max_icnt2mem_latency = 36 
max_icnt2sh_latency = 247471 
mrq_lat_table:776 	107 	8 	0 	40 	0 	0 	0 	0 	0 	0 	0 	0 	0 	0 	0 	0 	0 	0 	0 	0 	0 	0 	0 	0 	0 	0 	0 	0 	0 	0 	0 	
dq_lat_table:0 	0 	0 	0 	0 	0 	0 	0 	0 	0 	0 	0 	0 	0 	0 	0 	0 	0 	0 	0 	0 	0 	0 	0 	0 	0 	0 	0 	0 	0 	0 	0 	
mf_lat_table:0 	0 	0 	0 	0 	0 	0 	808 	933 	0 	0 	0 	0 	0 	0 	0 	0 	0 	0 	0 	0 	0 	0 	0 	0 	0 	0 	0 	0 	0 	0 	0 	
icnt2mem_lat_table:0 	0 	0 	1776 	8 	3 	0 	0 	0 	0 	0 	0 	0 	0 	0 	0 	0 	0 	0 	0 	0 	0 	0 	0 	
icnt2sh_lat_table:0 	0 	0 	920 	21 	0 	0 	0 	0 	0 	2 	6 	14 	26 	54 	106 	213 	379 	0 	0 	0 	0 	0 	0 	
mf_lat_pw_table:0 	0 	0 	0 	0 	0 	0 	491 	1 	0 	0 	0 	0 	0 	0 	0 	0 	0 	0 	0 	0 	0 	0 	0 	0 	0 	0 	0 	0 	0 	0 	0 	
maximum concurrent accesses to same row:
dram[0]:         3         2         3         4         2         4         2         3         2         3         3         2         3         3         2         2 
dram[1]:         2         3         2         3         2         2         3         3         2         3         3         2         3         2         4         4 
dram[2]:         3         3         2         3         3         3         3         2         4         2         4         3         2         3         2         3 
dram[3]:         3         2         3         2         4         4         3         3         3         3         2         2         2         3         3         3 
dram[4]:         3         3         3         3         4         2         3         3         2         3         3         4         3         2         4         2 
dram[5]:         2         3         2         3         3         4         2         4         4         2         4         2         3         3         3         2 
maximum service time to same row:
dram[0]:     64336     59975     65280     65285     59087     65275     59124     66220     59106     64359     65215     65184     64337     64284     65280     59079 
dram[1]:     59082     66167     59078     64325     59084     59083     59971     64383     65255     65175     64313     59110     65301     59974     65229     65272 
dram[2]:     59975     65218     65279     64336     60002     59581     65265     59998     65314     59106     65181     66161     59094     64337     59079     65279 
dram[3]:     64343     59083     65272     59081     65284     66175     66040     65219     64228     64308     59110     65272     59970     64354     65272     65230 
dram[4]:     66163     66173     64337     64331     59890     60010     59999     64317     59979     65307     59979     65182     65283     59094     65280     59080 
dram[5]:     59084     64342     60008     65273     59990     65285     59970     65113     65255     59106     66219     59109     65192     59973     64286     65264 
average row accesses per activate:
dram[0]:  2.750000  2.000000  2.250000  2.500000  2.000000  2.400000  2.000000  2.250000  2.500000  2.500000  2.250000  2.000000  2.500000  2.250000  2.000000  2.250000 
dram[1]:  2.000000  2.200000  2.500000  2.500000  1.571429  1.428571  2.500000  2.400000  2.000000  2.250000  2.500000  2.250000  2.250000  2.250000  2.500000  2.500000 
dram[2]:  2.500000  2.000000  2.000000  2.250000  2.400000  2.333333  2.250000  1.800000  2.500000  2.500000  2.500000  2.250000  2.000000  2.500000  2.250000  2.250000 
dram[3]:  2.500000  2.000000  2.250000  2.500000  2.400000  2.400000  2.000000  2.250000  2.250000  2.500000  2.250000  2.000000  2.250000  2.500000  2.250000  2.250000 
dram[4]:  2.250000  2.250000  2.250000  2.500000  2.333333  1.428571  2.000000  2.500000  2.000000  2.250000  2.500000  2.500000  2.250000  2.000000  2.500000  2.500000 
dram[5]:  2.250000  2.500000  2.000000  2.250000  2.600000  2.400000  2.250000  2.400000  2.500000  2.000000  2.500000  2.250000  2.250000  2.500000  2.250000  2.000000 
average row locality = 931/414 = 2.248792
number of total memory accesses made:
dram[0]:         0         0         0         0         0         0         0         0         0         0         0         0         0         0         0         0 
dram[1]:         0         0         0         0         0         0         0         0         0         0         0         0         0         0         0         0 
dram[2]:         0         0         0         0         0         0         0         0         0         0         0         0         0         0         0         0 
dram[3]:         0         0         0         0         0         0         0         0         0         0         0         0         0         0         0         0 
dram[4]:         0         0         0         0         0         0         0         0         0         0         0         0         0         0         0         0 
dram[5]:         0         0         0         0         0         0         0         0         0         0         0         0         0         0         0         0 
total accesses: 0
min_bank_accesses = 0!
min_chip_accesses = 0!
number of total read accesses:
dram[0]:        11        10         9        10        12        12        10         9        10        10         9         8        10         9         8         9 
dram[1]:         8        11        10        10        11        10        10        12         8         9        10         9         9         9        10        10 
dram[2]:        10        10         8         9        12        14         9         9        10        10        10         9         8        10         9         9 
dram[3]:        10         8         9        10        12        12        10         9         9        10         9         8         9        10         9         9 
dram[4]:         9         9         9        10        14        10        10        10         8         9        10        10         9         8        10        10 
dram[5]:         9        10         8         9        13        12         9        12        10         8        10         9         9        10         9         8 
total reads: 931
bank skew: 14/8 = 1.75
chip skew: 156/153 = 1.02
number of total write accesses:
dram[0]:         0         0         0         0         0         0         0         0         0         0         0         0         0         0         0         0 
dram[1]:         0         0         0         0         0         0         0         0         0         0         0         0         0         0         0         0 
dram[2]:         0         0         0         0         0         0         0         0         0         0         0         0         0         0         0         0 
dram[3]:         0         0         0         0         0         0         0         0         0         0         0         0         0         0         0         0 
dram[4]:         0         0         0         0         0         0         0         0         0         0         0         0         0         0         0         0 
dram[5]:         0         0         0         0         0         0         0         0         0         0         0         0         0         0         0         0 
total reads: 0
min_bank_accesses = 0!
min_chip_accesses = 0!
average mf latency per bank:
[...]
gpgpu_stall_shd_mem[g_mem_ld][wb_icnt_rc] = 0
gpgpu_stall_shd_mem[g_mem_ld][wb_rsrv_fail] = 0
gpgpu_stall_shd_mem[g_mem_st][mshr_rc] = 0
gpgpu_stall_shd_mem[g_mem_st][icnt_rc] = 0
gpgpu_stall_shd_mem[g_mem_st][wb_icnt_rc] = 0
gpgpu_stall_shd_mem[g_mem_st][wb_rsrv_fail] = 0
gpgpu_stall_shd_mem[l_mem_ld][mshr_rc] = 0
gpgpu_stall_shd_mem[l_mem_ld][icnt_rc] = 0
gpgpu_stall_shd_mem[l_mem_ld][wb_icnt_rc] = 0
gpgpu_stall_shd_mem[l_mem_ld][wb_rsrv_fail] = 0
gpgpu_stall_shd_mem[l_mem_st][mshr_rc] = 0
gpgpu_stall_shd_mem[l_mem_st][icnt_rc] = 0
gpgpu_stall_shd_mem[l_mem_ld][wb_icnt_rc] = 0
gpgpu_stall_shd_mem[l_mem_ld][wb_rsrv_fail] = 0
gpu_reg_bank_conflict_stalls = 0
Warp Occupancy Distribution:
Stall:201	W0_Idle:303484	W0_Scoreboard:243633	W1:0	W2:0	W3:0	W4:0	W5:0	W6:0	W7:0	W8:7240	W9:0	W10:0	W11:0	W12:0	W13:0	W14:0	W15:0	W16:0	W17:0	W18:0	W19:0	W20:0	W21:0	W22:0	W23:0	W24:0	W25:0	W26:0	W27:0	W28:0	W29:0	W30:0	W31:0	W32:5292
traffic_breakdown_coretomem[CONST_ACC_R] = 120 {8:15,}
traffic_breakdown_coretomem[GLOBAL_ACC_R] = 7424 {8:928,}
traffic_breakdown_coretomem[GLOBAL_ACC_W] = 32040 {40:801,}
traffic_breakdown_coretomem[INST_ACC_R] = 728 {8:91,}
traffic_breakdown_memtocore[CONST_ACC_R] = 1080 {72:15,}
traffic_breakdown_memtocore[GLOBAL_ACC_R] = 126208 {136:928,}
traffic_breakdown_memtocore[GLOBAL_ACC_W] = 6408 {8:801,}
traffic_breakdown_memtocore[INST_ACC_R] = 12376 {136:91,}
maxmrqlatency = 22 
maxdqlatency = 0 
maxmflatency = 285 
averagemflatency = 209 
max_icnt2mem_latency = 36 
max_icnt2sh_latency = 248842 
mrq_lat_table:780 	107 	8 	0 	40 	0 	0 	0 	0 	0 	0 	0 	0 	0 	0 	0 	0 	0 	0 	0 	0 	0 	0 	0 	0 	0 	0 	0 	0 	0 	0 	0 	
dq_lat_table:0 	0 	0 	0 	0 	0 	0 	0 	0 	0 	0 	0 	0 	0 	0 	0 	0 	0 	0 	0 	0 	0 	0 	0 	0 	0 	0 	0 	0 	0 	0 	0 	
mf_lat_table:0 	0 	0 	0 	0 	0 	0 	810 	934 	0 	0 	0 	0 	0 	0 	0 	0 	0 	0 	0 	0 	0 	0 	0 	0 	0 	0 	0 	0 	0 	0 	0 	
icnt2mem_lat_table:0 	0 	0 	1813 	16 	6 	0 	0 	0 	0 	0 	0 	0 	0 	0 	0 	0 	0 	0 	0 	0 	0 	0 	0 	
icnt2sh_lat_table:0 	0 	0 	922 	21 	0 	0 	0 	0 	0 	2 	6 	14 	26 	54 	106 	213 	380 	0 	0 	0 	0 	0 	0 	
mf_lat_pw_table:0 	0 	0 	0 	0 	0 	0 	492 	1 	0 	0 	0 	0 	0 	0 	0 	0 	0 	0 	0 	0 	0 	0 	0 	0 	0 	0 	0 	0 	0 	0 	0 	
maximum concurrent accesses to same row:
dram[0]:         3         2         3         4         2         4         2         3         2         3         3         2         3         3         2         2 
dram[1]:         2         3         2         3         2         2         3         3         2         3         3         2         3         2         4         4 
dram[2]:         3         3         2         3         3         3         3         2         4         2         4         3         2         3         2         3 
dram[3]:         3         2         3         2         4         4         3         3         3         3         2         2         2         3         3         3 
dram[4]:         3         3         3         3         4         2         3         3         2         3         3         4         3         2         4         2 
dram[5]:         2         3         2         3         3         4         2         4         4         2         4         2         3         3         3         2 
maximum service time to same row:
dram[0]:     64336     59975     65280     65285     59087     65275     59124     66220     59106     64359     65215     65184     64337     64284     65280     59079 
dram[1]:     59082     66167     59078     64325     59084     59083     59971     64383     65255     65175     64313     59110     65301     59974     65229     65272 
dram[2]:     59975     65218     65279     64336     60002     59581     65265     59998     65314     59106     65181     66161     59094     64337     59079     65279 
dram[3]:     64343     59083     65272     59081     65284     66175     66040     65219     64228     64308     59110     65272     59970     64354     65272     65230 
dram[4]:     66163     66173     64337     64331     59890     60010     59999     64317     59979     65307     59979     65182     65283     59094     65280     59080 
dram[5]:     59084     64342     60008     65273     59990     65285     59970     65113     65255     59106     66219     59109     65192     59973     64286     65264 
average row accesses per activate:
dram[0]:  2.600000  2.000000  2.250000  2.500000  2.000000  2.400000  2.000000  2.250000  2.500000  2.500000  2.250000  2.000000  2.500000  2.250000  2.000000  2.250000 
dram[1]:  2.000000  2.200000  2.500000  2.500000  1.571429  1.428571  2.500000  2.400000  2.000000  2.250000  2.500000  2.250000  2.250000  2.250000  2.500000  2.500000 
dram[2]:  2.500000  2.000000  2.000000  2.250000  2.400000  2.333333  2.250000  1.800000  2.500000  2.500000  2.500000  2.250000  2.000000  2.500000  2.250000  2.250000 
dram[3]:  2.500000  2.000000  2.250000  2.500000  2.400000  2.400000  2.200000  2.250000  2.250000  2.500000  2.250000  2.000000  2.250000  2.500000  2.250000  2.250000 
dram[4]:  2.250000  2.250000  2.250000  2.500000  2.333333  1.428571  2.000000  2.500000  2.000000  2.250000  2.500000  2.500000  2.250000  2.000000  2.500000  2.500000 
dram[5]:  2.250000  2.200000  2.000000  2.250000  2.600000  2.400000  2.250000  2.400000  2.500000  2.000000  2.500000  2.250000  2.250000  2.500000  2.250000  2.000000 
average row locality = 935/416 = 2.247596
number of total memory accesses made:
dram[0]:         0         0         0         0         0         0         0         0         0         0         0         0         0         0         0         0 
dram[1]:         0         0         0         0         0         0         0         0         0         0         0         0         0         0         0         0 
dram[2]:         0         0         0         0         0         0         0         0         0         0         0         0         0         0         0         0 
dram[3]:         0         0         0         0         0         0         0         0         0         0         0         0         0         0         0         0 
dram[4]:         0         0         0         0         0         0         0         0         0         0         0         0         0         0         0         0 
dram[5]:         0         0         0         0         0         0         0         0         0         0         0         0         0         0         0         0 
total accesses: 0
min_bank_accesses = 0!
min_chip_accesses = 0!
number of total read accesses:
dram[0]:        13        10         9        10        12        12        10         9        10        10         9         8        10         9         8         9 
dram[1]:         8        11        10        10        11        10        10        12         8         9        10         9         9         9        10        10 
dram[2]:        10        10         8         9        12        14         9         9        10        10        10         9         8        10         9         9 
dram[3]:        10         8         9        10        12        12        11         9         9        10         9         8         9        10         9         9 
dram[4]:         9         9         9        10        14        10        10        10         8         9        10        10         9         8        10        10 
dram[5]:         9        11         8         9        13        12         9        12        10         8        10         9         9        10         9         8 
total reads: 935
bank skew: 14/8 = 1.75
chip skew: 158/154 = 1.03
number of total write accesses:
dram[0]:         0         0         0         0         0         0         0         0         0         0         0         0         0         0         0         0 
dram[1]:         0         0         0         0         0         0         0         0         0         0         0         0         0         0         0         0 
dram[2]:         0         0         0         0         0         0         0         0         0         0         0         0         0         0         0         0 
dram[3]:         0         0         0         0         0         0         0         0         0         0         0         0         0         0         0         0 
dram[4]:         0         0         0         0         0         0         0         0         0         0         0         0         0         0         0         0 
dram[5]:         0         0         0         0         0         0         0         0         0         0         0         0         0         0         0         0 
total reads: 0
min_bank_accesses = 0!
min_chip_accesses = 0!
average mf latency per bank:
dram[0]:        500       240       266       273       267       266       267       267       266       265       274       267       267       266       268       266
dram[1]:        279       219       266       266       270       271       266       266       267       276       267       267       266       267       266       266
dram[2]:        266       242       268       267       266      8286       270       268       270       265       267       266       267       265       267       272
dram[3]:        267       267       267       266       266       269       267       274       266       267       266       267       267       266       274       267
dram[4]:        266       266       267       265       274       271       268       266       268       267       265       265       266       279       266       266
dram[5]:        266       242       268       273       266       268       266       267       266       267       272       266       269       268       267       267
maximum mf latency per bank:
dram[0]:        278       277       276       284       278       278       278       281       277       278       283       276       278       277       278       276
dram[1]:        285       276       278       278       281       277       277       277       276       285       281       278       278       281       276       278
dram[2]:        276       283       278       278       276       278       285       276       283       276       279       278       278       278       277       283
dram[3]:        279       278       280       278       278       283       277       285       276       278       276       277       277       278       283       276
dram[4]:        276       277       276       276       285       277       278       278       279       278       277       276       278       285       276       277
dram[5]:        277       284       278       285       281       281       276       278       278       276       285       278       282       279       279       276

Number of Memory Banks Accessed per Memory Operation per Warp (from 0):
0	0	0	0	0	0	0	0	0	0	0	0	0	0	0	0	0	0	0	0	0	0	0	0	0	0	0	0	0	0	0	0	0	0	0	0	0	0	0	0	0	0	0	0	0	0	0	0	0	0	0	0	0	0	0	0	0	0	0	0	0	0	0	0	0	0	0	0	0	0	0	0	0	0	0	0	0	0	0	0	0	0	0	0	0	0	0	0	0	0	0	0	0	0	0	0	
Average # of Memory Banks Accessed per Memory Operation per Warp=-nan

position of mrq chosen
0	0	0	0	0	0	0	0	0	0	0	0	0	0	0	0	

average position of mrq chosen = -nan
Memory Partition 0: 
Cache L2_bank_000:
MSHR contents

Cache L2_bank_001:
MSHR contents

In Dram Latency Queue (total = 0): 
DRAM[0]: 16 bks, busW=4 BL=8 CL=5, tRRD=2 tCCD=6, tRCD=12 tRAS=28 tRP=1 tRC=1
n_cmd=189476 n_nop=189034 n_act=71 n_pre=55 n_req=158 n_rd=316 n_write=0 bw_util=0.003336
n_activity=2687 dram_eff=0.2352
bk0: 26a 189342i bk1: 20a 189365i bk2: 18a 189385i bk3: 20a 189377i bk4: 24a 189345i bk5: 24a 189355i bk6: 20a 189361i bk7: 18a 189379i bk8: 20a 189376i bk9: 20a 189383i bk10: 18a 189382i bk11: 16a 189394i bk12: 20a 189383i bk13: 18a 189389i bk14: 16a 189392i bk15: 18a 189390i 
dram_util_bins: 0 0 0 0 0 0 0 0 0 0
dram_eff_bins: 0 0 0 0 0 0 0 0 0 0
mrqq: max=1 avg=0.000496105
Memory Partition 1: 
Cache L2_bank_002:
MSHR contents

Cache L2_bank_003:
MSHR contents

In Dram Latency Queue (total = 0): 
DRAM[1]: 16 bks, busW=4 BL=8 CL=5, tRRD=2 tCCD=6, tRCD=12 tRAS=28 tRP=1 tRC=1
n_cmd=189476 n_nop=189036 n_act=72 n_pre=56 n_req=156 n_rd=312 n_write=0 bw_util=0.003293
n_activity=2686 dram_eff=0.2323
bk0: 16a 189381i bk1: 22a 189365i bk2: 20a 189381i bk3: 20a 189385i bk4: 22a 189341i bk5: 20a 189341i bk6: 20a 189376i bk7: 24a 189359i bk8: 16a 189387i bk9: 18a 189376i bk10: 20a 189378i bk11: 18a 189385i bk12: 18a 189386i bk13: 18a 189387i bk14: 20a 189383i bk15: 20a 189382i 
dram_util_bins: 0 0 0 0 0 0 0 0 0 0
dram_eff_bins: 0 0 0 0 0 0 0 0 0 0
mrqq: max=1 avg=0.000575271
Memory Partition 2: 
Cache L2_bank_004:
MSHR contents

Cache L2_bank_005:
MSHR contents

In Dram Latency Queue (total = 0): 
DRAM[2]: 16 bks, busW=4 BL=8 CL=5, tRRD=2 tCCD=6, tRCD=12 tRAS=28 tRP=1 tRC=1
n_cmd=189476 n_nop=189042 n_act=69 n_pre=53 n_req=156 n_rd=312 n_write=0 bw_util=0.003293
n_activity=2629 dram_eff=0.2374
bk0: 20a 189380i bk1: 20a 189370i bk2: 16a 189390i bk3: 18a 189390i bk4: 24a 189362i bk5: 28a 189339i bk6: 18a 189379i bk7: 18a 189371i bk8: 20a 189377i bk9: 20a 189382i bk10: 20a 189380i bk11: 18a 189385i bk12: 16a 189387i bk13: 20a 189379i bk14: 18a 189383i bk15: 18a 189380i 
dram_util_bins: 0 0 0 0 0 0 0 0 0 0
dram_eff_bins: 0 0 0 0 0 0 0 0 0 0
mrqq: max=1 avg=0.000496105
Memory Partition 3: 
Cache L2_bank_006:
MSHR contents

Cache L2_bank_007:
MSHR contents

In Dram Latency Queue (total = 0): 
DRAM[3]: 16 bks, busW=4 BL=8 CL=5, tRRD=2 tCCD=6, tRCD=12 tRAS=28 tRP=1 tRC=1
n_cmd=189476 n_nop=189050 n_act=67 n_pre=51 n_req=154 n_rd=308 n_write=0 bw_util=0.003251
n_activity=2548 dram_eff=0.2418
bk0: 20a 189381i bk1: 16a 189393i bk2: 18a 189387i bk3: 20a 189384i bk4: 24a 189361i bk5: 24a 189353i bk6: 22a 189358i bk7: 18a 189377i bk8: 18a 189381i bk9: 20a 189380i bk10: 18a 189385i bk11: 16a 189392i bk12: 18a 189382i bk13: 20a 189383i bk14: 18a 189381i bk15: 18a 189388i 
dram_util_bins: 0 0 0 0 0 0 0 0 0 0
dram_eff_bins: 0 0 0 0 0 0 0 0 0 0
mrqq: max=1 avg=0.000580548
Memory Partition 4: 
Cache L2_bank_008:
MSHR contents

Cache L2_bank_009:
MSHR contents

In Dram Latency Queue (total = 0): 
DRAM[4]: 16 bks, busW=4 BL=8 CL=5, tRRD=2 tCCD=6, tRCD=12 tRAS=28 tRP=1 tRC=1
n_cmd=189476 n_nop=189042 n_act=70 n_pre=54 n_req=155 n_rd=310 n_write=0 bw_util=0.003272
n_activity=2628 dram_eff=0.2359
bk0: 18a 189385i bk1: 18a 189386i bk2: 18a 189384i bk3: 20a 189383i bk4: 28a 189332i bk5: 20a 189343i bk6: 20a 189363i bk7: 20a 189379i bk8: 16a 189385i bk9: 18a 189387i bk10: 20a 189382i bk11: 20a 189383i bk12: 18a 189386i bk13: 16a 189382i bk14: 20a 189382i bk15: 20a 189382i 
dram_util_bins: 0 0 0 0 0 0 0 0 0 0
dram_eff_bins: 0 0 0 0 0 0 0 0 0 0
mrqq: max=1 avg=0.000654436
Memory Partition 5: 
Cache L2_bank_010:
MSHR contents

Cache L2_bank_011:
MSHR contents

In Dram Latency Queue (total = 0): 
DRAM[5]: 16 bks, busW=4 BL=8 CL=5, tRRD=2 tCCD=6, tRCD=12 tRAS=28 tRP=1 tRC=1
n_cmd=189476 n_nop=189044 n_act=68 n_pre=52 n_req=156 n_rd=312 n_write=0 bw_util=0.003293
n_activity=2598 dram_eff=0.2402
bk0: 18a 189385i bk1: 22a 189368i bk2: 16a 189389i bk3: 18a 189380i bk4: 26a 189354i bk5: 24a 189357i bk6: 18a 189383i bk7: 24a 189359i bk8: 20a 189379i bk9: 16a 189388i bk10: 20a 189377i bk11: 18a 189386i bk12: 18a 189384i bk13: 20a 189378i bk14: 18a 189386i bk15: 16a 189390i 
dram_util_bins: 0 0 0 0 0 0 0 0 0 0
dram_eff_bins: 0 0 0 0 0 0 0 0 0 0
mrqq: max=1 avg=0.000511938

========= L2 cache stats =========
L2_cache_bank[0]: Access = 123, Miss = 81, Miss_rate = 0.659, Pending_hits = 9, Reservation_fails = 301
L2_cache_bank[1]: Access = 91, Miss = 77, Miss_rate = 0.846, Pending_hits = 3, Reservation_fails = 123
L2_cache_bank[2]: Access = 76, Miss = 76, Miss_rate = 1.000, Pending_hits = 0, Reservation_fails = 0
L2_cache_bank[3]: Access = 94, Miss = 80, Miss_rate = 0.851, Pending_hits = 3, Reservation_fails = 114
L2_cache_bank[4]: Access = 76, Miss = 76, Miss_rate = 1.000, Pending_hits = 0, Reservation_fails = 0
L2_cache_bank[5]: Access = 896, Miss = 80, Miss_rate = 0.089, Pending_hits = 3, Reservation_fails = 108
L2_cache_bank[6]: Access = 78, Miss = 78, Miss_rate = 1.000, Pending_hits = 0, Reservation_fails = 0
L2_cache_bank[7]: Access = 76, Miss = 76, Miss_rate = 1.000, Pending_hits = 0, Reservation_fails = 0
L2_cache_bank[8]: Access = 79, Miss = 79, Miss_rate = 1.000, Pending_hits = 0, Reservation_fails = 0
L2_cache_bank[9]: Access = 76, Miss = 76, Miss_rate = 1.000, Pending_hits = 0, Reservation_fails = 0
L2_cache_bank[10]: Access = 77, Miss = 77, Miss_rate = 1.000, Pending_hits = 0, Reservation_fails = 0
L2_cache_bank[11]: Access = 93, Miss = 79, Miss_rate = 0.849, Pending_hits = 3, Reservation_fails = 124
L2_total_cache_accesses = 1835
L2_total_cache_misses = 935
L2_total_cache_miss_rate = 0.5095
L2_total_cache_pending_hits = 21
L2_total_cache_reservation_fails = 770
L2_total_cache_breakdown:
	L2_cache_stats_breakdown[GLOBAL_ACC_R][HIT] = 1
	L2_cache_stats_breakdown[GLOBAL_ACC_R][MISS] = 927
	L2_cache_stats_breakdown[CONST_ACC_R][HIT] = 11
	L2_cache_stats_breakdown[CONST_ACC_R][HIT_RESERVED] = 3
	L2_cache_stats_breakdown[CONST_ACC_R][MISS] = 1
	L2_cache_stats_breakdown[CONST_ACC_R][RESERVATION_FAIL] = 101
	L2_cache_stats_breakdown[GLOBAL_ACC_W][HIT] = 801
	L2_cache_stats_breakdown[INST_ACC_R][HIT] = 66
	L2_cache_stats_breakdown[INST_ACC_R][HIT_RESERVED] = 18
	L2_cache_stats_breakdown[INST_ACC_R][MISS] = 7
	L2_cache_stats_breakdown[INST_ACC_R][RESERVATION_FAIL] = 669
L2_cache_data_port_util = 0.000
L2_cache_fill_port_util = 0.001

icnt_total_pkts_mem_to_simt=5941
icnt_total_pkts_simt_to_mem=2636
LD_mem_lat_dist  0 0 0 0 0 0 0 0 0 0 0 0 0 0 0 0 0 0 0 0 0 0 0 0 0 0 0
ST_mem_lat_dist  0 0 0 0 0 0 0 0 0 0 0 0 0 0 0 0 0 0 0 0 0 0 0 0 0 0 0
----------------------------Interconnect-DETAILS--------------------------------
Class 0:
Packet latency average = 14.0625
	minimum = 6
	maximum = 34
Network latency average = 12.0312
	minimum = 6
	maximum = 34
Slowest packet = 3575
Flit latency average = 9.68421
	minimum = 6
	maximum = 34
Slowest flit = 8293
Fragmentation average = 0
	minimum = 0
	maximum = 0
Injected packet rate average = 0.0025934
	minimum = 0 (at node 16)
	maximum = 0.0218818 (at node 15)
Accepted packet rate average = 0.0025934
	minimum = 0 (at node 16)
	maximum = 0.0218818 (at node 15)
Injected flit rate average = 0.00769917
	minimum = 0 (at node 16)
	maximum = 0.109409 (at node 15)
Accepted flit rate average= 0.00769917
	minimum = 0 (at node 16)
	maximum = 0.0218818 (at node 15)
Injected packet length average = 2.96875
Accepted packet length average = 2.96875
Total in-flight flits = 0 (0 measured)
====== Overall Traffic Statistics ======
====== Traffic class 0 ======
Packet latency average = 10.8262 (2 samples)
	minimum = 6 (2 samples)
	maximum = 34 (2 samples)
Network latency average = 9.7701 (2 samples)
	minimum = 6 (2 samples)
	maximum = 34 (2 samples)
Flit latency average = 7.95233 (2 samples)
	minimum = 6 (2 samples)
	maximum = 34 (2 samples)
Fragmentation average = 0 (2 samples)
	minimum = 0 (2 samples)
	maximum = 0 (2 samples)
Injected packet rate average = 0.00156415 (2 samples)
	minimum = 8.08172e-06 (2 samples)
	maximum = 0.0144383 (2 samples)
Accepted packet rate average = 0.00156415 (2 samples)
	minimum = 8.08172e-06 (2 samples)
	maximum = 0.0144383 (2 samples)
Injected flit rate average = 0.00447008 (2 samples)
	minimum = 8.08172e-06 (2 samples)
	maximum = 0.0598183 (2 samples)
Accepted flit rate average = 0.00447008 (2 samples)
	minimum = 3.63678e-05 (2 samples)
	maximum = 0.0219583 (2 samples)
Injected packet size average = 2.85784 (2 samples)
Accepted packet size average = 2.85784 (2 samples)
Hops average = 1 (2 samples)
----------------------------END-of-Interconnect-DETAILS-------------------------


gpgpu_simulation_time = 0 days, 0 hrs, 0 min, 15 sec (15 sec)
gpgpu_simulation_rate = 15148 (inst/sec)
gpgpu_simulation_rate = 16589 (cycle/sec)
